##TITLE=Analysis number 320896
Compound Code km 10724
Book Reference 493/30/7
Project Code adrs
Chemist Name peted
##JCAMPDX= 6.0         $$ Bruker NMR JCAMP-DX V2.0
##DATA TYPE= NMR SPECTRUM
##DATA CLASS= NTUPLES
##ORIGIN= Bruker BioSpin GmbH
##OWNER= nmr
$$ XWIN-NMR		Version 3.5
$$ Mon Jul 17 10:25:02 2006 GMT Daylight Time (UT+1h)  MAYBRIDGE\nmr@NMR_250MHZ
##.OBSERVE FREQUENCY= 250.131544655141
##.OBSERVE NUCLEUS= ^1H
##.ACQUISITION MODE= SIMULTANEOUS (DQD)
##.ACQUISITION SCHEME= undefined
##.AVERAGES= 16
##.DIGITISER RES= 18
##SPECTROMETER/DATA SYSTEM= dpx250
##.PULSE SEQUENCE= zg30
##.SOLVENT NAME= CDCl3
##.SHIFT REFERENCE= (INTERNAL, CDCl3, 0, 16.522)
##AUDIT TRAIL= $$ (NUMBER, WHEN, WHO, WHERE, WHAT)
$$ ##TITLE= Audit trail, XWIN-NMR		Version 3.5
$$ ##JCAMPDX= 5.01
$$ ##ORIGIN= Bruker BioSpin GmbH
$$ ##OWNER= nmr
$$ C:\u/data/dgb/nmr/ADRS/2840/pdata/1/auditp.txt
$$ ##AUDIT TRAIL=  $$ (NUMBER, WHEN, WHO, WHERE, WHAT)
(   1,<2006-07-17 10:24:37.07 +100>,<MAYBRIDGE\nmr>,<NMR_250MHZ>,
      <created by zg, POWCHK disabled, PULCHK disabled
       configuration hash MD5:
       E2 DF 36 D8 04 B2 41 60 5A D7 A3 38 5A 4B D0 FE
       data hash MD5: 64K
       A8 96 72 6B 0C 37 6A E5 08 35 4E B0 82 29 AA DC>)
(   2,<2006-07-17 10:24:54.24 +100>,<MAYBRIDGE\nmr>,<NMR_250MHZ>,
      <Start of raw data processing
       ef LB = 0.3 FT_mod = 6 PKNL = 1 SI = 32K 
       data hash MD5: 32K
       FE 1D AD 15 EB 40 A2 F2 B5 76 E6 F6 B7 C3 82 35>)
(   3,<2006-07-17 10:24:55.87 +100>,<MAYBRIDGE\nmr>,<NMR_250MHZ>,
      <apk 
       data hash MD5: 32K
       1C E1 DD E9 3D DA 17 BF 37 07 07 61 58 EB 17 36>)
(   4,<2006-07-17 10:24:56.73 +100>,<MAYBRIDGE\nmr>,<NMR_250MHZ>,
      <abs ABSG = 5 
       data hash MD5: 32K
       70 41 CB E9 CB 60 B8 CA C4 58 6C 98 C8 C5 C8 1F>)
$$ ##END=
$$ 
$$ hash MD5
$$ F4 A5 D3 60 68 05 34 DA C8 0B 8E 28 96 1E 62 81
##$RELAX= 
##$BRUKER FILE EXP=format.temp
$$ EDIT_PAR COMMAND FILE
$$ 
$$ DI_MODE         LONG
$$ ED_ENTRY        ACQU
$$ ORDER           FILE
$$ 
$$ 
$$ HEADER		"F2 - Acquisition Parameters"
$$ T_NAME		Date_
$$ 		TYPE	R64
$$ 		CLASS	ACQU
$$ 		SUBRANGE 0.0 50000000
$$ 		REL	"Date_=itodate(DATE)"
$$ 		INV_REL	"DATE=datetoi(Date_,DATE)"
$$ 		FORMAT	"%14.0f"
$$ 		TEXT	" "
$$ END
$$ T_NAME		Time
$$ 		TYPE	R32
$$ 		CLASS	ACQU
$$ 		SUBRANGE 0.0 1000000
$$ 		REL	"Time=itotime(DATE)"
$$ 		INV_REL	"DATE=timetoi(Time,DATE)"
$$ 		FORMAT	"%14.2f"
$$ 		TEXT	" "
$$ END
$$ NAME		INSTRUM
$$ 		TEXT	" "
$$ END
$$ NAME		PROBHD
$$ 		FORMAT	"%14.14s"
$$ 		TEXT	" "
$$ END
$$ NAME		PULPROG
$$ 		TEXT	" "
$$ END
$$ NAME		TD
$$ 		TEXT	" "
$$ END
$$ NAME		SOLVENT
$$ 		TEXT	" "
$$ END
$$ NAME		NS
$$ 		TEXT	" "
$$ END
$$ NAME		DS
$$ 		TEXT	" "
$$ END
$$ T_NAME		SWH
$$ 		TYPE	R32
$$ 		CLASS	ACQU
$$ 		SUBRANGE 0.0 1e8
$$ 		REL	"SWH=SW*SFO1"
$$ 		INV_REL "SW=SWH/SFO1"
$$ 		UNIT	"Hz"
$$ 		FORMAT	"%14.3f Hz"
$$ 		TEXT	" "
$$ END
$$ T_NAME          FIDRES
$$                 TYPE    R32
$$                 CLASS   ACQU
$$                 SUBRANGE 0.0 100000
$$                 REL     "FIDRES=SW*SFO1/TD"
$$                 INV_REL "TD = nextpow(SW*SFO1/FIDRES)"
$$ 		UNIT	"Hz"
$$ 		FORMAT	"%14.6f Hz"
$$ 		TEXT	" "
$$ END
$$ T_NAME          AQ
$$ 		TYPE	R32
$$ 		CLASS	ACQU
$$ 		SUBRANGE 0.0 1000
$$ 		REL	"AQ=aqcalc(SW,SFO1,TD,DIGTYP)"
$$ 		INV_REL	"TD=tdcalc(SW,SFO1,1.0e6*AQ,DIGTYP)"
$$ 		UNIT	"sec"
$$ 		FORMAT	"%14.7f sec"
$$ 		TEXT	" "
$$ END
$$ NAME		RG
$$ 		TEXT	" "
$$ END
$$ T_NAME          DW
$$ 		TYPE	R32
$$ 		CLASS	ACQU
$$ 		SUBRANGE 0.0 1000000
$$ 		REL	"DW=1/(2*SW*SFO1)"
$$ 		INV_REL	"SW=1000000/(2*(0.005+DW)*SFO1)"
$$ 		UNIT	"usec"
$$ 		FORMAT	"%14.3lf usec"
$$ 		TEXT	" "
$$ END
$$ NAME		DE
$$ 		FORMAT	"%14.2f usec"
$$ 		TEXT	" "
$$ END
$$ NAME		TE
$$ 		FORMAT	"%14.1f K"
$$ 		TEXT	" "
$$ END
$$ T_NAME		D1
$$ 		TYPE	R32
$$ 		CLASS	ACQU
$$ 		SUBRANGE 0.0 1000000
$$ 		REL	"D1=D[1]"
$$ 		INV_REL	"D[1]=D1"
$$ 		UNIT	"sec"
$$ 		FORMAT	"%14.8f sec"
$$ 		TEXT	" "
$$ END
$$ T_NAME		MCREST 
$$ 		TYPE	R32
$$ 		SUBRANGE 0.0 1e8
$$ 		CLASS	ACQU
$$ 		REL	"MCREST = 30m - 30m"
$$ 		INV_REL	"D[0]=MCREST "
$$ 		UNIT	"sec"
$$ 		TEXT	" "
$$ 		FORMAT	"%14.8f sec"
$$ 		NONEDIT
$$ END
$$ T_NAME		MCWRK 
$$ 		TYPE	R32
$$ 		SUBRANGE 0.0 1e8
$$ 		CLASS	ACQU
$$ 		REL	"MCWRK = 0.500000*30m"
$$ 		INV_REL	"D[0]=MCWRK "
$$ 		UNIT	"sec"
$$ 		TEXT	" "
$$ 		FORMAT	"%14.8f sec"
$$ 		NONEDIT
$$ END
$$ HEADER		"======== CHANNEL f1 ========"
$$ NAME		NUC1
$$ 		TEXT	" "
$$ END
$$ T_NAME		P1
$$ 		TYPE	R32
$$ 		CLASS	ACQU
$$ 		SUBRANGE 0.0 1.0e10
$$ 		REL	"P1=P[1]"
$$ 		INV_REL	"P[1]=P1"
$$ 		UNIT	"usec"
$$ 		FORMAT	"%14.2f usec"
$$ 		TEXT	" "
$$ END
$$ T_NAME		PL1
$$ 		TYPE	R32
$$ 		CLASS	ACQU
$$ 		SUBRANGE -6.0 120
$$ 		REL	"PL1=PL[1]"
$$ 		INV_REL	"PL[1]=PL1"
$$ 		UNIT	"dB"
$$ 		FORMAT	"%14.2f dB"
$$ 		TEXT	" "
$$ END
$$ NAME		SFO1
$$ 		FORMAT	"%14.7f MHz"
$$ 		TEXT	" "
$$ END
##$RELAX= 
##$BRUKER FILE EXP=scon
$$ ##TITLE= Parameter file, XWIN-NMR		Version 3.5
$$ ##JCAMPDX= 5.0
$$ ##DATATYPE= Parameter Values
$$ ##ORIGIN= Bruker BioSpin GmbH
$$ ##OWNER= nmr
$$ Mon Jul 17 10:22:17 2006 GMT Daylight Time (UT+1h)  MAYBRIDGE\nmr@NMR_250MHZ
$$ C:\u/data/dgb/nmr/ADRS/2840/scon
$$ ##$BLKPA= (0..15)
3 3 3 3 3 3 3 3 3 3 3 3 3 3 3 3 
$$ ##$BLKTR= (0..15)
3 3 3 3 3 3 3 3 3 3 3 3 3 3 3 3 
$$ ##$DE1= 2
$$ ##$DE2= 2
$$ ##$DEADC= 4
$$ ##$DEPA= 2
$$ ##$DERX= 3
$$ ##$PHASP4= (0..15)
0.5 0.5 0.5 0.5 0.5 0.5 0.5 0.5 0.5 0.5 0.5 0.5 0.5 0.5 0.5 0.5 
$$ ##$PHASPR= (0..15)
3 3 3 3 3 3 3 3 3 3 3 3 3 3 3 3 
$$ ##$SHAPPR= (0..15)
1.6 1.6 1.6 1.6 1.6 1.6 1.6 1.6 1.6 1.6 1.6 1.6 1.6 1.6 1.6 1.6 
$$ ##END=
##$RELAX= 
##$BRUKER FILE EXP=pulseprogram
$$ # 1 "C:/Bruker/XWIN-NMR/exp/stan/nmr/lists/pp/zg30"
$$ ;zg30
$$ ;avance-version (02/05/31)
$$ ;1D sequence
$$ ;using 30 degree flip angle
$$ 
$$ 
$$ # 1 "C:/Bruker/XWIN-NMR/exp/stan/nmr/lists/pp/Avance.incl" 1
$$ ;Avance.incl
$$ ;
$$ ;avance-version (03/02/17)
$$ 
$$ 
$$ 
$$ 
$$ 
$$ 
$$ 
$$ 
$$ 
$$ 
$$ 
$$ 
$$ 
$$ 
$$ 
$$ 
$$ 
$$ 
$$ 
$$ 
$$ 
$$ 
$$ 
$$ 
$$ 
$$ 
$$ 
$$ 
$$ 
$$ 
$$ 
$$ 
$$ 
$$ 
$$ 
$$ 
$$ 
$$ 
$$ 
$$ 
$$ 
$$ 
$$ 
$$ 
$$ 
$$ 
$$ 
$$ 
$$ 
$$ 
$$ 
$$ 
$$ 
$$ 
$$ 
$$ 
$$ 
$$ 
$$ 
$$ 
$$ 
$$ 
$$ 
$$ 
$$ 
$$ 
$$ 
$$ 
$$ 
$$ 
$$ 
$$ 
$$ 
$$ 
$$ 
$$ 
$$ 
$$ 
$$ 
$$ 
$$ 
$$ 
$$ 
$$ 
$$ 
$$ 
$$ 
$$ 
$$ 
$$ 
$$ 
$$ 
$$ 
$$ 
$$ 
$$ 
$$ 
$$ 
$$ 
$$ 
$$ 
$$ 
$$ 
$$ 
$$ 
$$ 
$$ 
$$ 
$$ 
$$ 
$$ 
$$ 
$$ 
$$ 
$$ ;$Id: Avance1.incl,v 1.7.2.3 2003/02/25 14:48:47 ber Exp $
$$ # 7 "C:/Bruker/XWIN-NMR/exp/stan/nmr/lists/pp/zg30" 2
$$ 
$$ 
$$ 
$$ # 1 "mc_line 10 file C:/Bruker/XWIN-NMR/exp/stan/nmr/lists/pp/zg30 expanding definition part of mc command before ze"
$$ define delay MCWRK
$$ define delay MCREST
$$ "MCWRK = 0.500000*30m"
$$ "MCREST = 30m - 30m"
$$ # 10 "C:/Bruker/XWIN-NMR/exp/stan/nmr/lists/pp/zg30"
$$ 1 ze
$$ # 1 "mc_line 10 file C:/Bruker/XWIN-NMR/exp/stan/nmr/lists/pp/zg30 expanding definition of mc command after ze"
$$ # 11 "C:/Bruker/XWIN-NMR/exp/stan/nmr/lists/pp/zg30"
$$ # 1 "mc_line 11 file C:/Bruker/XWIN-NMR/exp/stan/nmr/lists/pp/zg30 expanding start label for mc command"
$$ 2 MCWRK  * 2
$$ LBLF0, MCREST
$$ # 12 "C:/Bruker/XWIN-NMR/exp/stan/nmr/lists/pp/zg30"
$$   d1
$$   p1*0.33 ph1
$$   go=2 ph31
$$ # 1 "mc_line 15 file C:/Bruker/XWIN-NMR/exp/stan/nmr/lists/pp/zg30 expanding mc command in line"
$$   MCWRK wr #0
$$   MCWRK zd 
$$   lo to LBLF0 times td0
$$ 
$$ # 16 "C:/Bruker/XWIN-NMR/exp/stan/nmr/lists/pp/zg30"
$$ exit
$$ 
$$ 
$$ ph1=0 2 2 0 1 3 3 1
$$ ph31=0 2 2 0 1 3 3 1
$$ 
$$ 
$$ ;pl1 : f1 channel - power level for pulse (default)
$$ ;p1 : f1 channel -  90 degree high power pulse
$$ ;d1 : relaxation delay; 1-5 * T1
$$ ;NS: 1 * n, total number of scans: NS * TD0
$$ 
$$ 
$$ 
$$ ;$Id: zg30,v 1.7 2002/06/12 09:05:20 ber Exp $
##$RELAX= 
##$BRUKER FILE EXP=uxnmr.par
$$ ##TITLE= Parameter file, XWIN-NMR		Version 3.5
$$ ##JCAMPDX= 5.0
$$ ##DATATYPE= Parameter Values
$$ ##ORIGIN= Bruker BioSpin GmbH
$$ ##OWNER= Administrator
$$ Wed May 31 10:36:54 2006 GMT Daylight Time (UT+1h)  MAYBRIDGE\nmr@NMR_250MHZ
$$ C:/Bruker/XWIN-NMR/conf/instr/dpx250/uxnmr.par
$$ ##$ACB= 0
$$ ##$ACBTAT= (0..15)
0 88 72 0 0 0 0 0 0 0 0 0 0 0 0 0 
$$ ##$ACBTBA= (0..15)
0 30 40 0 0 0 0 0 0 0 0 0 0 0 0 0 
$$ ##$ACBTCTL= (0..15)
0 0 0 0 0 0 0 0 0 0 0 0 0 0 0 0 
$$ ##$ACBTDI= (0..15)
0 70 70 0 0 0 0 0 0 0 0 0 0 0 0 0 
$$ ##$ACBTDM= (0..15)
0 0 0 0 0 0 0 0 0 0 0 0 0 0 0 0 
$$ ##$ACBTFHI= (0..15)
0 0 0 0 0 0 0 0 0 0 0 0 0 0 0 0 
$$ ##$ACBTFL= (0..15)
0 249 250 0 0 0 0 0 0 0 0 0 0 0 0 0 
$$ ##$ACBTFLO= (0..15)
0 0 0 0 0 0 0 0 0 0 0 0 0 0 0 0 
$$ ##$ACBTOUT= (0..15)
0 0 0 0 0 0 0 0 0 0 0 0 0 0 0 0 
$$ ##$ACBTPO= (0..15)
0 100000 20000 0 0 0 0 0 0 0 0 0 0 0 0 0 
$$ ##$ACBTPW= (0..15)
0 0 0 0 0 0 0 0 0 0 0 0 0 0 0 0 
$$ ##$ACBTSB= (0..15)
0 1 1 0 0 0 0 0 0 0 0 0 0 0 0 0 
$$ ##$ACBTY= <no>
$$ ##$AQSBDHW= (0..31)
255 255 255 255 255 255 255 255 255 255 255 255 255 255 255 255 255 255 
255 255 255 255 255 255 255 255 255 255 255 255 255 255 
$$ ##$AQSBDID= (0..31)
255 255 255 255 255 255 255 255 255 255 255 255 255 255 255 255 255 255 
255 255 255 255 255 255 255 255 255 255 255 255 255 255 
$$ ##$AQSBDNO= (0..31)
255 255 255 255 255 255 255 255 255 255 255 255 255 255 255 255 255 255 
255 255 255 255 255 255 255 255 255 255 255 255 255 255 
$$ ##$AQSBDTY= (0..31)
255 255 255 255 255 255 255 255 255 255 255 255 255 255 255 255 255 255 
255 255 255 255 255 255 255 255 255 255 255 255 255 255 
$$ ##$AQSBUAD= (0..31)
255 255 255 255 255 255 255 255 255 255 255 255 255 255 255 255 255 255 
255 255 255 255 255 255 255 255 255 255 255 255 255 255 
$$ ##$AQSECL= (0..31)
255 255 255 255 255 255 255 255 255 255 255 255 255 255 255 255 255 255 
255 255 255 255 255 255 255 255 255 255 255 255 255 255 
$$ ##$AQSECLS= (0..31)
255 255 255 255 255 255 255 255 255 255 255 255 255 255 255 255 255 255 
255 255 255 255 255 255 255 255 255 255 255 255 255 255 
$$ ##$ATT19F= (0..1)
0 0 
$$ ##$ATT1H= (0..1)
0 0 
$$ ##$ATT3H= (0..1)
0 0 
$$ ##$ATTX= (0..1)
0 0 
$$ ##$ATTY= (0..1)
0 0 
$$ ##$ATTZ= (0..1)
0 0 
$$ ##$BACSTY= <tty09>
$$ ##$BARPTY= <no>
$$ ##$BFREQ= 250.13
$$ ##$BIRDS= no
$$ ##$BMPC= 0
$$ ##$BMPCTY= <no>
$$ ##$BPSUTY= <no>
$$ ##$BSMS= 1
$$ ##$BSMSTY= <tty02>
$$ ##$CFASMOD= (0..7)
2 2 0 0 0 0 0 0 
$$ ##$CFASMUL= (0..7)
1 1 0 0 0 0 0 0 
$$ ##$CNFTXDR= (0..7)
3 3 0 0 0 0 0 0 
$$ ##$COMDIG2= 0
$$ ##$CPDBTY= <no>
$$ ##$CRCOTY= <no>
$$ ##$DIGI140= (0..7)
0 0 0 0 0 0 0 0 
$$ ##$DIGIB12= (0..7)
0 0 0 0 0 0 0 0 
$$ ##$DIGIB16= (0..7)
0 0 0 0 0 0 0 0 
$$ ##$DIGIFA= (0..7)
0 0 0 0 0 0 0 0 
$$ ##$DIGIHA= (0..7)
0 0 0 0 0 0 0 0 
$$ ##$DIGIHAF= (0..7)
0 0 0 0 0 0 0 0 
$$ ##$DIGIHRD= (0..7)
0 0 0 0 0 0 0 0 
$$ ##$DIGIIA= (0..7)
0 0 0 0 0 0 0 0 
$$ ##$DIGIO16= (0..7)
0 0 0 0 0 0 0 0 
$$ ##$DIGISA= (0..7)
0 0 0 0 0 0 0 0 
$$ ##$DIGISAF= (0..7)
1 0 0 0 0 0 0 0 
$$ ##$DIGISL= (0..7)
0 0 0 0 0 0 0 0 
$$ ##$DIGITYI= (0..7)
0 0 0 0 0 0 0 0 
$$ ##$DIGITYP= (0..7)
0 0 0 0 0 0 0 0 
$$ ##$DIGITZ= 0
$$ ##$FCUMEM= (0..7)
258048 258048 0 0 0 0 0 0 
$$ ##$FCUPAL= (0..7)
3 3 0 0 0 0 0 0 
$$ ##$FQMIX= 0
$$ ##$FUNCMOD= <>
$$ ##$GCUTYPE= 0
$$ ##$HFAC= 3
$$ ##$HPCU= 0
$$ ##$HPCUTY= <no>
$$ ##$HPTXLP= (0..3)
-1 -1 -1 -1 
$$ ##$HPTXPI= (0..3)
0 0 0 0 
$$ ##$HPTXPO= (0..3)
0 0 0 0 
$$ ##$HPTXTY= (0..3)
0 0 0 0 
$$ ##$IF451= 0
$$ ##$IFREQ= 1
$$ ##$INTFPR= 0
$$ ##$LOCKTY= <tty04>
$$ ##$LOCSWID= 0
$$ ##$M2FAC= 0
$$ ##$MASTY= <no>
$$ ##$MEMPRM= 0
$$ ##$MHFAC= 0
$$ ##$MXFAC= 0
$$ ##$NAMPD1= <2H>
$$ ##$NAMPD10= <>
$$ ##$NAMPD11= <>
$$ ##$NAMPD12= <>
$$ ##$NAMPD13= <>
$$ ##$NAMPD14= <>
$$ ##$NAMPD15= <>
$$ ##$NAMPD16= <>
$$ ##$NAMPD2= <X-BB19F_2HS>
$$ ##$NAMPD3= <1H>
$$ ##$NAMPD4= <>
$$ ##$NAMPD5= <>
$$ ##$NAMPD6= <>
$$ ##$NAMPD7= <>
$$ ##$NAMPD8= <>
$$ ##$NAMPD9= <>
$$ ##$NFCU= 2
$$ ##$NMRCH= 0
$$ ##$NMRMEM= 0
$$ ##$NRCU= 1
$$ ##$NROUT= 1
$$ ##$PAMPF1= (0..15)
75 99 67 27 0 0 0 12 48 94 66 0 32 30 6 4 
$$ ##$PAMPF2= (0..15)
0 0 0 0 0 0 0 0 0 0 0 0 0 0 0 0 
$$ ##$PAMPF3= (0..15)
0 0 0 0 0 0 0 0 0 0 0 0 0 0 0 0 
$$ ##$PAMPF4= (0..15)
0 0 0 0 0 0 0 0 0 0 0 0 0 0 0 0 
$$ ##$PAMPF5= (0..15)
0 0 0 0 0 0 0 0 0 0 0 0 0 0 0 0 
$$ ##$PAMPF6= (0..15)
0 0 0 0 0 0 0 0 0 0 0 0 0 0 0 0 
$$ ##$PAMPF7= (0..15)
0 0 0 0 0 0 0 0 0 0 0 0 0 0 0 0 
$$ ##$PAMPF8= (0..15)
0 0 0 0 0 0 0 0 0 0 0 0 0 0 0 0 
$$ ##$PH4= 0
$$ ##$PHF4TY= <no>
$$ ##$POWCHK= no
$$ ##$PRAMD1= (0..7)
0 1048576 0 0 0 1048576 0 0 
$$ ##$PRAMD10= (0..7)
0 0 0 0 0 0 0 0 
$$ ##$PRAMD11= (0..7)
0 0 0 0 0 0 0 0 
$$ ##$PRAMD12= (0..7)
0 0 0 0 0 0 0 0 
$$ ##$PRAMD13= (0..7)
0 0 0 0 0 0 0 0 
$$ ##$PRAMD14= (0..7)
0 0 0 0 0 0 0 0 
$$ ##$PRAMD15= (0..7)
0 0 0 0 0 0 0 0 
$$ ##$PRAMD16= (0..7)
0 0 0 0 0 0 0 0 
$$ ##$PRAMD2= (0..7)
2147483644 2146435071 2147483647 134217727 2147483644 2146435071 2147483647 
134217727 
$$ ##$PRAMD3= (0..7)
2 0 0 0 2 0 0 0 
$$ ##$PRAMD4= (0..7)
0 0 0 0 0 0 0 0 
$$ ##$PRAMD5= (0..7)
0 0 0 0 0 0 0 0 
$$ ##$PRAMD6= (0..7)
0 0 0 0 0 0 0 0 
$$ ##$PRAMD7= (0..7)
0 0 0 0 0 0 0 0 
$$ ##$PRAMD8= (0..7)
0 0 0 0 0 0 0 0 
$$ ##$PRAMD9= (0..7)
0 0 0 0 0 0 0 0 
$$ ##$PRAMLED= (0..1)
15 15 
$$ ##$PRAMP1= <tty01>
$$ ##$PRAMP2= <no>
$$ ##$PRAMP3= <no>
$$ ##$PRAMP4= <no>
$$ ##$PRAMP5= <no>
$$ ##$PRAMP6= <no>
$$ ##$PRAMP7= <no>
$$ ##$PRAMP8= <no>
$$ ##$PRAMPTP= 0
$$ ##$PREPTY= <no>
$$ ##$PRESHLD= 0
$$ ##$PTS160= -1
$$ ##$PTSA2X= (0..7)
0 0 0 0 0 0 0 0 
$$ ##$PTSF2X= (0..7)
309 309 0 0 0 0 0 0 
$$ ##$PTSFMX= (0..7)
620 620 0 0 0 0 0 0 
$$ ##$PULCHK= no
$$ ##$RCUCDS= (0..7)
4194304 0 0 0 0 0 0 0 
$$ ##$RCUCFS= (0..7)
4096 0 0 0 0 0 0 0 
$$ ##$RCUCSS= (0..7)
262144 0 0 0 0 0 0 0 
$$ ##$RCUI2C1= (0..7)
78 66 0 0 0 0 0 0 
$$ ##$RCUI2C2= (0..7)
0 0 0 0 0 0 0 0 
$$ ##$RCUI2C3= (0..7)
0 0 0 0 0 0 0 0 
$$ ##$RCUI2C4= (0..7)
0 0 0 0 0 0 0 0 
$$ ##$RCUI2C5= (0..7)
0 0 0 0 0 0 0 0 
$$ ##$RCUI2C6= (0..7)
0 0 0 0 0 0 0 0 
$$ ##$RCUI2C7= (0..7)
0 0 0 0 0 0 0 0 
$$ ##$RCUI2C8= (0..7)
0 0 0 0 0 0 0 0 
$$ ##$RDCU= 0
$$ ##$RGTYPE= (0..7)
5 0 0 0 0 0 0 0 
$$ ##$RG_max= (0..7)
46341 0 0 0 0 0 0 0 
$$ ##$RG_min= (0..7)
1 0 0 0 0 0 0 0 
$$ ##$ROUTER= 2
$$ ##$RX22TY= <tty10>
$$ ##$SCMTY= <no>
$$ ##$SPECTR= 7
$$ ##$SY2FLAG= 0
$$ ##$TFXNUM= 0
$$ ##$TRIPLO2= 0
$$ ##$VTUTY= <tty05>
$$ ##$WBREFAM= (0..15)
100 100 100 100 100 100 100 100 100 100 100 100 100 100 100 100 
$$ ##$WBREFPH= (0..15)
0 0 0 0 0 0 0 0 0 0 0 0 0 0 0 0 
$$ ##$XFAC= 2
$$ ##END=
##$RELAX= 
##$BRUKER FILE PROC=intrng
$$ P 0
$$ 8.871310   8.531560
$$ 8.203808   7.754177
$$ 7.608299   7.046890
$$ 6.990686   6.650305
$$ 3.648128   3.375949
$$ 3.375317   2.892215
$$ 1.913382   1.449857
##$RELAX= 
##$BRUKER FILE PROC=parm.txt
$$ 
$$ Current Data Parameters
$$ NAME               ADRS                
$$ EXPNO              2840                
$$ PROCNO                1                
$$ 
$$ F2 - Acquisition Parameters
$$ Date_          20060717                
$$ Time              10.24                
$$ INSTRUM          dpx250                
$$ PROBHD   5 mm Dual 13C/                
$$ PULPROG            zg30                
$$ TD                65536                
$$ SOLVENT           CDCl3                
$$ NS                   16                
$$ DS                    2                
$$ SWH            5175.983 Hz             
$$ FIDRES         0.078979 Hz             
$$ AQ            6.3308277 sec            
$$ RG               1290.2                
$$ DW               96.600 usec           
$$ DE                 6.00 usec           
$$ TE                296.2 K              
$$ D1           1.00000000 sec            
$$ MCREST       0.00000000 sec            
$$ MCWRK        0.01500000 sec            
$$ 
$$ ======== CHANNEL f1 ========
$$ NUC1                 1H                
$$ P1                 9.20 usec           
$$ PL1                0.00 dB             
$$ SFO1        250.1315447 MHz            
$$ 
$$ F2 - Processing parameters
$$ SI                32768                
$$ SF          250.1300000 MHz            
$$ WDW                  EM                
$$ SSB                   0                
$$ LB                 0.30 Hz             
$$ GB                    0                
$$ PC                 1.00                
##$RELAX= 
$$ Bruker specific parameters
$$ --------------------------
##$DU= <C:\u>
##$EXPNO= 2840
##$NAME= <ADRS>
##$PROCNO= 1
##$TYPE= <nmr>
##$USER= <dgb>
##$AMP= (0..31)
100 100 100 100 100 100 100 100 100 100 100 100 100 100 100 100 100 100 
100 100 100 100 100 100 100 100 100 100 100 100 100 100 
##$AQSEQ= 0
##$AQ_mod= 3
##$AUNM= <au_zg>
##$AUTOPOS= <11 >
##$BF1= 250.13
##$BF2= 250.13
##$BF3= 250.13
##$BF4= 250.13
##$BF5= 500.13
##$BF6= 500.13
##$BF7= 500.13
##$BF8= 500.13
##$BYTORDA= 1
##$CFDGTYP= 0
##$CFRGTYP= 5
##$CHEMSTR= <none>
##$CNST= (0..31)
1 1 145 1 1 1 1 1 1 1 1 1 1 1 1 1 1 1 1 1 1 1 1 1 1 1 1 1 1 1 1 1 
##$CPDPRG= <>
##$CPDPRG1= <>
##$CPDPRG2= <>
##$CPDPRG3= <>
##$CPDPRG4= <mlev>
##$CPDPRG5= <mlev>
##$CPDPRG6= <mlev>
##$CPDPRG7= <mlev>
##$CPDPRG8= <mlev>
##$CPDPRGB= <>
##$CPDPRGT= <>
##$D= (0..31)
0 1 0 0 0 0 0 0 0 0.06 0 0 0 0 0 0 0.0002 0 0 0 0 0 0 0 0 0 0 0 0 0 0 
0 
##$DATE= 1153128275
##$DBL= (0..7)
120 120 120 120 120 120 120 120 
##$DBP= (0..7)
150 150 150 150 150 150 150 150 
##$DBP07= 0
##$DBPNAM0= <>
##$DBPNAM1= <>
##$DBPNAM2= <>
##$DBPNAM3= <>
##$DBPNAM4= <>
##$DBPNAM5= <>
##$DBPNAM6= <>
##$DBPNAM7= <>
##$DBPOAL= (0..7)
0.5 0.5 0.5 0.5 0.5 0.5 0.5 0.5 
##$DBPOFFS= (0..7)
0 0 0 0 0 0 0 0 
##$DE= 6
##$DECBNUC= <off>
##$DECIM= 24
##$DECNUC= <off>
##$DECSTAT= 4
##$DIGMOD= 1
##$DIGTYP= 9
##$DL= (0..7)
0 120 120 120 120 120 120 120 
##$DP= (0..7)
150 150 150 150 150 150 150 150 
##$DP07= 0
##$DPNAME0= <>
##$DPNAME1= <>
##$DPNAME2= <>
##$DPNAME3= <>
##$DPNAME4= <>
##$DPNAME5= <>
##$DPNAME6= <>
##$DPNAME7= <>
##$DPOAL= (0..7)
0.5 0.5 0.5 0.5 0.5 0.5 0.5 0.5 
##$DPOFFS= (0..7)
0 0 0 0 0 0 0 0 
##$DQDMODE= 0
##$DR= 18
##$DS= 2
##$DSLIST= <SSSSSSSSSSSSSSS>
##$DSPFIRM= 0
##$DSPFVS= 12
##$DTYPA= 0
##$EXP= <PROTON>
##$F1LIST= <111111111111111>
##$F2LIST= <222222222222222>
##$F3LIST= <333333333333333>
##$FCUCHAN= (0..9)
0 1 0 0 0 0 0 0 0 0 
##$FL1= 90
##$FL2= 90
##$FL3= 90
##$FL4= 90
##$FOV= 20
##$FQ1LIST= <freqlist>
##$FQ2LIST= <freqlist>
##$FQ3LIST= <freqlist>
##$FQ4LIST= <freqlist>
##$FQ5LIST= <freqlist>
##$FQ6LIST= <freqlist>
##$FQ7LIST= <freqlist>
##$FQ8LIST= <freqlist>
##$FS= (0..7)
83 83 83 83 83 83 83 83 
##$FTLPGN= 0
##$FW= 93750
##$FnMODE= 0
##$GP031= 0
##$GPNAM0= <sine.100>
##$GPNAM1= <sine.100>
##$GPNAM10= <sine.100>
##$GPNAM11= <sine.100>
##$GPNAM12= <sine.100>
##$GPNAM13= <sine.100>
##$GPNAM14= <sine.100>
##$GPNAM15= <sine.100>
##$GPNAM16= <sine.100>
##$GPNAM17= <sine.100>
##$GPNAM18= <sine.100>
##$GPNAM19= <sine.100>
##$GPNAM2= <sine.100>
##$GPNAM20= <sine.100>
##$GPNAM21= <sine.100>
##$GPNAM22= <sine.100>
##$GPNAM23= <sine.100>
##$GPNAM24= <sine.100>
##$GPNAM25= <sine.100>
##$GPNAM26= <sine.100>
##$GPNAM27= <sine.100>
##$GPNAM28= <sine.100>
##$GPNAM29= <sine.100>
##$GPNAM3= <sine.100>
##$GPNAM30= <sine.100>
##$GPNAM31= <sine.100>
##$GPNAM4= <sine.100>
##$GPNAM5= <sine.100>
##$GPNAM6= <sine.100>
##$GPNAM7= <sine.100>
##$GPNAM8= <sine.100>
##$GPNAM9= <sine.100>
##$GPX= (0..31)
0 0 0 0 0 0 0 0 0 0 0 0 0 0 0 0 0 0 0 0 0 0 0 0 0 0 0 0 0 0 0 0 
##$GPY= (0..31)
0 0 0 0 0 0 0 0 0 0 0 0 0 0 0 0 0 0 0 0 0 0 0 0 0 0 0 0 0 0 0 0 
##$GPZ= (0..31)
0 0 0 0 0 0 0 0 0 0 0 0 0 0 0 0 0 0 0 0 0 0 0 0 0 0 0 0 0 0 0 0 
##$GRDPROG= <>
##$HDDUTY= 20
##$HDRATE= 20
##$HGAIN= (0..3)
0 0 0 0 
##$HL1= 1
##$HL2= 35
##$HL3= 16
##$HL4= 17
##$HOLDER= 0
##$HPMOD= (0..7)
0 0 0 0 0 0 0 0 
##$HPPRGN= 0
##$IN= (0..31)
0.001 0.001 0.001 0.001 0.001 0.001 0.001 0.001 0.001 0.001 0.001 0.001 
0.001 0.001 0.001 0.001 0.001 0.001 0.001 0.001 0.001 0.001 0.001 0.001 
0.001 0.001 0.001 0.001 0.001 0.001 0.001 0.001 
##$INP= (0..31)
0 0 0 0 0 0 0 0 0 0 0 0 0 0 0 0 0 0 0 0 0 0 0 0 0 0 0 0 0 0 0 0 
##$INSTRUM= <dpx250>
##$L= (0..31)
1 1 1 1 1 1 1 1 1 1 1 1 1 1 1 1 1 1 1 1 1 1 1 1 1 1 1 1 1 1 1 1 
##$LFILTER= 100
##$LGAIN= -15
##$LOCKED= yes
##$LOCKFLD= -918
##$LOCKGN= 124.900001525879
##$LOCKPOW= -25
##$LOCKPPM= 7.23999977111816
##$LOCNUC= <2H>
##$LOCPHAS= 126.9
##$LOCSHFT= yes
##$LTIME= 0.200000002980232
##$MASR= 4200
##$MASRLST= <masrlst>
##$NBL= 1
##$NC= -2
##$NS= 16
##$NUC1= <1H>
##$NUC2= <off>
##$NUC3= <off>
##$NUC4= <off>
##$NUC5= <off>
##$NUC6= <off>
##$NUC7= <off>
##$NUC8= <off>
##$NUCLEI= 0
##$NUCLEUS= <off>
##$O1= 1544.65514086155
##$O2= 1544.65514086155
##$O3= 1544.65514086155
##$O4= 1544.65514086155
##$O5= 0
##$O6= 0
##$O7= 0
##$O8= 0
##$OBSCHAN= (0..9)
0 0 0 0 0 0 0 0 0 0 
##$OVERFLW= 0
##$P= (0..31)
9.2 9.2 18.4 0 0 0 0 0 0 0 0 0 0 0 0 200000 1000 2500 0 600 26 0 0 0 0 
0 0 9.2 1000 0 0 0 
##$PAPS= 2
##$PARMODE= 0
##$PCPD= (0..9)
100 80 100 100 100 100 100 100 100 100 
##$PHCOR= (0..31)
0 0 0 0 0 0 0 0 0 0 0 0 0 0 0 0 0 0 0 0 0 0 0 0 0 0 0 0 0 0 0 0 
##$PHP= 1
##$PH_ref= 0
##$PL= (0..31)
120 0 120 120 120 120 120 120 120 120 120 120 120 120 120 120 120 120 
0 20 120 120 120 120 120 120 120 120 120 120 120 120 
##$POWMOD= 0
##$PR= 1
##$PRECHAN= (0..15)
-1 1 -1 2 -1 -1 -1 -1 -1 -1 -1 -1 -1 -1 -1 -1 
##$PRGAIN= 0
##$PROBHD= <5 mm Dual 13C/1H Z5653/002
>
##$PROSOL= no
##$PULPROG= <zg30>
##$PW= 0
##$QNP= 1
##$RD= 0
##$RECCHAN= (0..15)
-1 -1 -1 -1 -1 -1 -1 -1 -1 -1 -1 -1 -1 -1 -1 -1 
##$RECPH= 0
##$RG= 1290.2
##$RO= 20
##$ROUTWD1= (0..23)
0 0 0 0 0 0 0 0 0 0 0 0 0 0 0 0 0 0 0 0 1 1 0 0 
##$ROUTWD2= (0..23)
0 0 0 0 0 1 0 0 0 0 0 0 0 0 0 0 0 0 1 0 1 1 0 0 
##$RPUUSED= (0..8)
0 0 0 0 0 0 0 0 0 
##$RSEL= (0..9)
0 2 0 0 0 0 0 0 0 0 
##$S= (0..7)
83 4 83 83 83 83 83 83 
##$SEOUT= 0
##$SFO1= 250.131544655141
##$SFO2= 250.131544655141
##$SFO3= 250.131544655141
##$SFO4= 250.131544655141
##$SFO5= 500.13
##$SFO6= 500.13
##$SFO7= 500.13
##$SFO8= 500.13
##$SOLVENT= <CDCl3>
##$SP= (0..31)
1 120 120 0 0 0 120 0 0 0 0 0 0 0 0 0 150 150 150 150 150 150 150 150 
150 150 150 150 150 150 150 150 
##$SP07= 0
##$SPECTR= 0
##$SPNAM0= <gauss>
##$SPNAM1= <Gaus1.1000>
##$SPNAM10= <gauss>
##$SPNAM11= <gauss>
##$SPNAM12= <gauss>
##$SPNAM13= <gauss>
##$SPNAM14= <gauss>
##$SPNAM15= <gauss>
##$SPNAM16= <gauss>
##$SPNAM17= <gauss>
##$SPNAM18= <gauss>
##$SPNAM19= <gauss>
##$SPNAM2= <Gaus1.1000>
##$SPNAM20= <gauss>
##$SPNAM21= <gauss>
##$SPNAM22= <gauss>
##$SPNAM23= <gauss>
##$SPNAM24= <gauss>
##$SPNAM25= <gauss>
##$SPNAM26= <gauss>
##$SPNAM27= <gauss>
##$SPNAM28= <gauss>
##$SPNAM29= <gauss>
##$SPNAM3= <>
##$SPNAM30= <gauss>
##$SPNAM31= <gauss>
##$SPNAM4= <gauss>
##$SPNAM5= <gauss>
##$SPNAM6= <Gaus1.1000>
##$SPNAM7= <>
##$SPNAM8= <gauss>
##$SPNAM9= <gauss>
##$SPOAL= (0..31)
0.5 0.5 0.5 0.5 0.5 0.5 0.5 0.5 0.5 0.5 0.5 0.5 0.5 0.5 0.5 0.5 0.5 0.5 
0.5 0.5 0.5 0.5 0.5 0.5 0.5 0.5 0.5 0.5 0.5 0.5 0.5 0.5 
##$SPOFFS= (0..31)
0 0 0 0 0 0 0 0 0 0 0 0 0 0 0 0 0 0 0 0 0 0 0 0 0 0 0 0 0 0 0 0 
##$SUBNAM0= <"">
##$SUBNAM1= <"">
##$SUBNAM2= <"">
##$SUBNAM3= <"">
##$SUBNAM4= <"">
##$SUBNAM5= <"">
##$SUBNAM6= <"">
##$SUBNAM7= <"">
##$SUBNAM8= <"">
##$SUBNAM9= <"">
##$SW= 20.6930455092707
##$SWIBOX= (0..15)
0 0 3 0 0 0 0 0 0 0 0 0 0 0 0 0 
##$SW_h= 5175.983436853
##$TD= 65536
##$TD0= 1
##$TE= 296.16
##$TE2= 300
##$TE3= 300
##$TEG= 300
##$TL= (0..7)
0 120 120 120 120 120 120 120 
##$TP= (0..7)
150 150 150 150 150 150 150 150 
##$TP07= 0
##$TPNAME0= <>
##$TPNAME1= <>
##$TPNAME2= <>
##$TPNAME3= <>
##$TPNAME4= <>
##$TPNAME5= <>
##$TPNAME6= <>
##$TPNAME7= <>
##$TPOAL= (0..7)
0.5 0.5 0.5 0.5 0.5 0.5 0.5 0.5 
##$TPOFFS= (0..7)
0 0 0 0 0 0 0 0 
##$TUNHIN= 0
##$TUNHOUT= 0
##$TUNXOUT= 0
##$USERA1= <user>
##$USERA2= <user>
##$USERA3= <user>
##$USERA4= <user>
##$USERA5= <user>
##$V9= 5
##$VALIST= <valist>
##$VCLIST= <CCCCCCCCCCCCCCC>
##$VD= 0
##$VDLIST= <DDDDDDDDDDDDDDD>
##$VPLIST= <PPPPPPPPPPPPPPP>
##$VTLIST= <TTTTTTTTTTTTTTT>
##$WBST= 1024
##$WBSW= 4
##$XGAIN= (0..3)
0 0 0 0 
##$XL= 0
##$YL= 0
##$YMAX_a= 309046
##$YMIN_a= -389746
##$ZGOPTNS= <>
##$ZL1= 120
##$ZL2= 120
##$ZL3= 120
##$ZL4= 120
##$ABSF1= 16.522
##$ABSF2= -4.171173
##$ABSG= 5
##$ABSL= 3
##$ALPHA= 0
##$AQORDER= 0
##$ASSFAC= 0
##$ASSFACI= 0
##$ASSFACX= 0
##$ASSWID= 0
##$AUNMP= <proc_1d>
##$AZFE= 0.1
##$AZFW= 0.1
##$BCFW= 0
##$BC_mod= 0
##$BYTORDP= 0
##$COROFFS= 0
##$CY= 12.5
##$DATMOD= 1
##$DC= 0
##$DFILT= <>
##$DTYPP= 0
##$F1P= 14.0000005364418
##$F2P= -0.99999901652339
##$FCOR= 0.5
##$FTSIZE= 32768
##$FT_mod= 6
##$GAMMA= 0
##$GB= 0
##$INTBC= 1
##$INTSCL= 1
##$ISEN= 128
##$LB= 0.3
##$LEV0= 0
##$LPBIN= 0
##$MAXI= 10000
##$MC2= 0
##$MEAN= 0
##$ME_mod= 0
##$MI= 0
##$NCOEF= 0
##$NC_proc= -5
##$NLEV= 6
##$NOISF1= 0
##$NOISF2= 0
##$NSP= 0
##$NTH_PI= 0
##$NZP= 0
##$OFFSET= 16.522
##$PC= 1
##$PHC0= 168.6556
##$PHC1= 6.664633
##$PH_mod= 1
##$PKNL= yes
##$PPARMOD= 0
##$PSCAL= 4
##$PSIGN= 0
##$REVERSE= no
##$SF= 250.13
##$SI= 32768
##$SIGF1= 0
##$SIGF2= 0
##$SINO= 400
##$SIOLD= 32768
##$SREGLST= <1H.CDCl3>
##$SSB= 0
##$STSI= 32768
##$STSR= 0
##$SW_p= 5175.98343685301
##$SYMM= 0
##$S_DEV= 0
##$TDeff= 65536
##$TDoff= 0
##$TI= <Analysis number 999999
Compound Code 99
Book Reference 9
Project Code 9>
##$TILT= no
##$TM1= 0
##$TM2= 0
##$TOPLEV= 0
##$USERP1= <user>
##$USERP2= <user>
##$USERP3= <user>
##$USERP4= <user>
##$USERP5= <user>
##$WDW= 1
##$XDIM= 32768
##$YMAX_p= 476122011
##$YMIN_p= -937862
$$ End of Bruker specific parameters
$$ ---------------------------------
##NTUPLES= NMR SPECTRUM
##VAR_NAME=  FREQUENCY,     SPECTRUM/REAL,   SPECTRUM/IMAG
##SYMBOL=    X,             R,               I
##VAR_TYPE=  INDEPENDENT,   DEPENDENT,       DEPENDENT
##VAR_FORM=  AFFN,          ASDF,            ASDF
##VAR_DIM=   32768,         32768,           32768
##UNITS=     HZ,            ARBITRARY UNITS, ARBITRARY UNITS
##FACTOR=    0.157963299565203, 1,           1
##FIRST=     4132.6476996994, 0,             0
##LAST=      -1043.33573715361, 0,           0
##MIN=       -1043.33573715361, -937862,     0
##MAX=       4132.6476996994, 476122011,     0
$$ Real data points
##PAGE= N=1
##DATA TABLE= (X++(R..R)), XYDATA
32767b28257J05458J92191r6070j75986l9961m4294L9169K3656J30900J56105
32757F2911q415q1250k9024j05049r4790K6129l3581M7898P4295M6622P9498l1738
32745d6494j79582m4501J34233J07907j03397j46263j53278J6018J59333L6705
32735b19319p6661N0103O4085j5488M9179L5018j18717m6024R2638O9638N3628
32724f1920o5833j34974l252J26186N4217m3714K5317p18K0144N3359M7170J19269
32712A35251l9295k18320j99699J36458L9880k7630m7878q301Q3173J14668o3909
32701i5602J67455j0166R5252p4474k30937n3975M5613m9872Q3944m1205J36179
32690b7788l6404N4193j13962k6025N23k7296M2988P0381j5564M817K2148L5369
32678a6620j99753k09668l9579K6199K8085J1022j85j7880P8539J45478K07877
32667A3515n7600k59662K51551J23115j23038j13790j636K3224n4944j19806k8590
32656c47661J3779J55869K79796R381k5622j00545o6495q691J80811K4001j68167
32645e3544o6430O7335O797O2729P6332j37841j2429q8539o4660K1771j1491p9908
32633b79878o0707P5280N109K3770O4419k3528j21700k2869j87316O60J52744
32622c74016J68364N298P5756n0675O8303P0645o6624O2763m9306O0792J03394
32611G4694n0853j46368m7116l9328J8861J11195j2720M5307j38614q4179j13675
32600c82796r9134J55078K48948M1921l9381j3605j88115J21091J70101j58936
32590a44828j84479p237j04084j2895K45946R6146r0508O0399N4267K6304J1644
32579d9325k58218j761O6814R5058J29148Q632o486M4766r2144J16655J35704
32568A88843r0236k13888j2403M0000J76261j02097k86167J14004J91582j31005
32558a25106m1431J98596L9362l71446Q829L8204M8561K91685m6339j67377j9303
32547a45765J26981R963q2397J46176J6134m9132m7564k21989j9687J54249m1665
32536a54696k6395J12542J37232q8430k26891k0510k8593M0284O9469J28573j75238
32525b32653o7797l1949q186K57273K53471k16522k67022l7206J83907q1940l19467
32514e68091j21641J63872J89543J26323n3477J58247O9390k0955Q1084J46469
32504A70764M8294k2308j22454k34418J4433K22453R0913r6810k15105K7583J0445
32493a06210j7580l5133j8706k43570q7804J17027K41402n9612k3278J83139J53649
32482A03324j64054Q5180J20330k39172J99215J65001j16729j38500p5905l2361
32472i3671j68793N0243r727M3264J49379q8603p8034n3559M9224J03796J04559
32461H078K2533J35240n3198J09879l9392j9113J78189J28301K4977m7412k43175
32450B04907k59101m4426K35317J96967k37468r9875J61816N1090l6285m1950
32440A30992k29235J3966j36315k5840K02047J6088K12470j25071j72222J11599
32430a521n133k68472j85927J9222J50071j89671O2501L03007J78588j89886Q367
32419a18854J50046q8252k45080r0435J14129j28503p5407K52006L180J82743
32409d4427j91955k67001J08936J05538N5320K7003K529k61921N8933L22292p0748
32398a55501Q1976n5377l4242Q2522r4018J311J49150r2220l66215J32193K12109
32387a38312j48813j62215M9201m8062P810M9667J29492L2792j9146j4083p1769
32376c33438j08038m9681o7921P8874J15611L9038R5279K15359o6178J45216Q3457
32365A47578j74819k29899j62903l9372J31626P999J05268k18210j80073R9902
32355e12903J22233Q5923J50110l4255j88881o9798K46453J0188l2935J27962
32345i5903J19252m5807k35927q4233N8189J40429K48498k39190p5396O9572k9477
32334a69993p0488J27389k41950j26748P4885J96811J28136J31314j43552K9302
32324f4894J05045J69842q4949k18345r4804J37910K2388o9579q1671J32017J08940
32313F1900K2011o1075k24390k6318l2551J08991r564J29042K0611n9201O0480
32302a0064j47159j2296K5188J41547Q8514J9429k77259j67826J33204o8031j68190
32291d42943n9338K8850L26835K05086J11691j60784O9530j84123j42860k8090
32281b76146j42148K88852P6916j02589J24607N2884n4892L58192p2613k9002
32271B24061o223k00158J44793P530O4806O9618j40502r9876r6500q8413J52113
32260C1249N0993P9055K8128Q5702k92515j18290P5430J29614k0377j05175L1852
32249b4334J09009N9712j67519O0758J86636L4028m6309j2470j11649j42087j2596
32238f6821J31081r1940j28586j86030P7825k781K74226M2935k05151P0152k3626
32227a08716j61202j15816r3822L00180K22847r0083k6509j23897j7342K49139
32217C4779K7512J01466L7150M4855l00746j21685L80906J72228l05750l15959
32207b45244K9295l4216k3030k472j4026j24773k8875J99402M93300K85627j15991
32196D18997k08087k79611j20247J3709J61592l7324j71852j37893m4763J40788
32186b64691L71435K38891r5429j8532j17563k64851m9149J03856m4304o0219
32176b00556J77560r046k42050r9995K60717K84156p419l76201k80063k52181
32166g45078l17P0304Q6869K38139R2055j62993J91843J64609k0972M8082K30258
32155A92799K0000k93431o7077K28700N611N0476L7567j80426N2573j770j29656
32144h4634k29756J29679O2765O2235j04052J47564q7655j10309o83l2068J30590
32133a16324J48070J30392M2037k58079k16011j29121n3871J50369J54473M6884
32123a01181k30539L6497K97443J36238j53231J40502L2025j33564J0112j85352
32113a51050k69944J22766J66894N4955j76269q9940L15437q0643k31090J28041
32103b10843R8325l29227j26605L7040J66635p6383L0510K69827R3732k13607
32093b60596k59968R3401J46822L7285J65293j20902L0815N735L7308J81986J74047
32082B31226r0241j26068k33620k50626K74749J22545J44231L6332Q26j13027
32072c673J31710j00533P1196R4824n8867p0954p7027j88405K9856j65530m3196
32061c80599J20387m2343K97370K90052L3876R6618k01071q9004n1016k07942
32051a33672l58858L907J41439j23007j8420P9772J01290P5258M2856j3967Q1827
32040a21575j39897K5505m1966k07600O8294P1900M3925R5170P9255r64k16834
32029c44787P0786K03981K18208J10627k75060k43334k4054m6452P2694K55497
32019a894p9350n8442k00706j60040Q6186N7624N42028l4013l64161K69596K01717
32008B58545L5880J23271J87556r6995j49675j40638J360l1316l372k06254L3839
31997A2201Q3850j29602q8511L7290M3092q778J57371l7822O8192j05934j10313
31986g8964J05977K2417J07813J20013m8225k65125j39638R9347J38675K23967
31976B86257j80373l54986j55478J9933K10487K12382j03321j24094J48738J57010
31966A16555j67085j36661j58238M531N886J10395J0918J6141K28317j00014j47761
31955b17016j79153J02497J07202j10566K42066J4108L0619j88306k72592J8258
31945d52883K60343K43142K48633J04769l27448l2694k18497l16566J30489o71
31935c61383K8730J38512J92108K14569n6810j23040k2965m2670R2889q7942q2554
31924a10556j4081R5630p2061j03659p4319N3147J93593J1907p1673J45349J67445
31913B20722j20550j92819J33646K3066J19488j03721m3348Q6357J7826k00478
31903e9811q9711L9040j52840k46001m0814L09816J18854j3645n5842o0239L00667
31892D9474K6457J78158l5263j50482j87893j51108j10766j22077m3658K75380
31882b71778K65966o0209k10615N6825L4740o5099K12959r7308M8823m133j17489
31871b07318o2804N7492J45901j76068J61346J86534k83792J21414N5206j42448
31861a44537p8085L89889L0377j18180Q1065j03086j38634j01820j27913j7826
31851c28750N9425J36010J27027o1992J15023K68520j51993N4410J5799r9976
31841A33503m0493k3973K05037j97060K82600n7434k56427k08097N9006M8646
31831e4692p541q1570j29958l3640j04135k8137J80337j40517q1004P2201J70488
31820b38168J59472J7720P8194L11226J3793P5372j43116j24204j19484J6647
31810D7452M8019J15423k03839j17808J98864K16000o86k70084l522K55348j22748
31799A62419l35473j91597J07876l4174n4187O8933J33452J16173P9128p444R320
31788E4426P9436q8062m29k90308O7266J58225J39141M0157k09932n3254j16498
31777b19832j48744J73157J48435N6600j22825j42898K63146J32422m8624r2349
31767a512J79907Q6262l3706L5355l2745j93191k41572L2782P4266J32862j5366
31756B3342L6546K9412J24605q1016k32659J3320R0130j21612K5945K22133J8904
31745A49050k40100J73784o5244l18122N3297L51528O4870k96339j08594j27088
31735c62958J66858j64296k86930M3893j0549L7483J10180K12949J61775j08478
31725b00073R4967J58508p086l3075j37505k2871J4320k6990J21168K63078J59114
31714C83555K9914j41890m16351j25241r1209J54476l0339j59153j15074q5053
31704e96365K74647J83696K31386J29024P3704l86850k61766K1925K428L978O3498
31693b60695J52440J82517p4515j74048J93785j64484m2535n1822o1349j64563
31683d65269Q7502O9464l3492k55921p6507R7431Q6702K31683Q3842k77445L67161
31672h4849L08400J70269k12665n5560j00576R4317J47375j53872k2091p2261
31662A8487j64494N6382J03116J47033q1088K7588n5157K37560M1309P8730k08428
31651B01038j01312J58649k24829l20751q8973Q9241J10125N9233m9773J16869
31641e0483J82207J60962j45262j80964j26380Q2507J84573J32875J218j48587
31631I2666N9925K0810j5320J06720p5057o5334j84945q8040O6333L1503j05502
31620a56241L3599K26603J44916m05807l4818K19088o5703j39407N2748L5087
31610h9935N9433J95563j48510N2439P8251l9790k124k64307K2347J53087k1042
31599d588k2099N8837j1103p3857J61085L7180m7729K26116n9925j02832l4107
31588A26978j10577k3192j84635k76282N8445N1781j21495P3567L0690p1881M2332
31577d04269J98921p9915L2836M6460n5616M3397K16367m0547j51306J516N1888
31566a40268j8757K10731J44455j75195P3319l2224K583k6784k4245r7946R0191
31555E860J14182r1808j03789J18231J88463P4333q54N951r9692j09033J57546
31544B59390J9475k2226m1887l73143k03262J71202J8310L04939L44318q4523
31534C92593l2383j3464j78265j08562j95688J13357J50478L6616l9660j93262
31524f8240j80940q2315L3967j01349J07999J40622P0238J60177J70908M4922
31514B95989m6121L2045R142L9759q0254k12412k17998J02579o7604j75876R0377
31503b30374K894j3822n8257k87170K52679L51995j25677j45604J07209R7337
31493d8790j1813m15496J15037K67525N4397k9641k01433N266J20560K85350k09571
31482f8609l00682Q8156K03949J73597j56443k63285J02579K97464L23689O7594
31472D68009p4554k81468j18598l61786q5213J19530K26176Q6848K10392J15079
31462C04415k29096r9510q542q6489Q0093J24347K0857j24956k6845J01652J395
31451E7321R140R8008J02840j20103O0653J7435j6061j05376J87944l87249R2776
31440b672K50244J13329m3869K5263j1247j57310p1825j5327R1761p4130j47731
31429d3514J55002K15751J14330r3133K33973k02308k02114J70776N9378l0989
31419C77152K3357j57876j11929q2098j50272J35071o1720j07194m9224J53433
31409c1300K0752j40899P6642k6070R56j46940O1651K06070l5560p4458j99380
31398b88536J7437J34709j11761j9028K4171k12140m0369K34495K29561J80182
31388A48721j29579j07889J67989K07824j28190n08680j34447R2270J36018P0819
31378a85144J62706R3056k1130M0458J24041J1057j57424k09449k04074m3746
31368c89649K6249R9854R9648K69759L72742j9353m55129l95454J59453J25559
31358a06321J0601J50164R3246j34995n5701L0571k10165J54864j17657o6315
31348b51708J75402K08730n4285o8784J00732K12410N0084R0696o2112m5264k43455
31337A12446k25389j18377j22553K63357L43593K34252l48338k50277k29927k19713
31327e60926k0607Q6048J97669j19802k51523J95199L18625R1755J59495j87000
31317i1067O2435L3262Q3508o5599j3810n6900k29543j66060K41878Q0006j55459
31306b77349K27455K02213j23911j96456n665K85847N3080j93896j61981J30496
31296f0167N3844k10588Q0207j1758k55213R0378K30730J65637q6162l1875K72947
31285B37980R0379j86718n9593k00049O0812M5883M4970M201J90877M4329j23973
31274A49098j10616O353j62980l8454j70068L5708Q1591R43j01495J03451K24962
31263A8493K19420p1147k1714k5788L9065j29033l8928l814n9922J78809M32807
31252E38248J73840k07460k00780j27514K56097J44310N4267k37716o1486k05820
31242A25986K6584L06675K53261o7138j24638k36329l1460n4677l09917n7310
31232a68963J54216L76284K11377p3793j5456k77454R5325j45336j37337n4056
31222c5193j43893j64575K5562R1419K03448j4954n9150J72213p8473q03p2989
31211g7388J88645r0189j76615k25911j56371K97790P1762n2345J71594J34715
31201H5687j7544R1798n8305r8179l1762K22544M2108j3939J09134m8143j01754
31190A81645j57236m4616p1761j06243m2954J35836J41899j16507p9479K23318
31180F3902K69822J60691j88041l20282j14509m9343k13758j00594J07705K2838
31170c61569j3716Q3138J95374J72808O9595J45588J73452j25127l48933j593
31160a0983J3373J10350j47011R8726P8846j24849k56217k5673N6014J32641N6844
31149a7939k52591j34737J73460n3138N7023K64416J92499j05504K9896J05593
31139B58978r159J02992o6811k00814k57077l472P5852J69194o1921k645J33856
31128A38973k39610l01379O4814J71421J55849j05910j32132r0718J10089J25098
31118a03505O4419r5762m8377R4208m7603j8940o7480K04144K34248j390j09260
31107A04702K7534j80704j52531L9539j2K4579q5703J37827K7518j12701J40885
31096b9067J34713L3859n4564k78981j06221K18638m2221J05817j48543n6617
31086b23187Q6444J62597P8481j40767j87963J76292k28079k42151J02733J82252
31076b33348K83956L43617o6790m39439l00116k848K45844P9397j62629o0080
31066c12436P2491J45722R6214k03237j28151m4148J43047J02955k9829N7165
31056a00207J22248Q7001k44629r2309N7409L7699q099N9838j01896Q5020N4293
31045d3632K30362O4351n4857J28041Q221j3623O3679J78244k04565j05364k28996
31034B1861l99956p7536K42940J1050j2642j7988J66358J16066L4674l5390j69228
31023a19791K22067J18590j71018n3582l7492J14155o0059Q0439J03707j6233
31013A80783k98856k31468K30673J58727N0206r4839J09263O8318k15820n7080
31003a00093l1403m2117j39728O4966P2055K4856K4424L0709J28822L8420p6420
30992e509M1462R3584j55159J36680k8800j35946p897M8750M5314k02778k7319
30981a97618J57311O9465j28687m8278P4688M2563K9622J89614j56296j40202
30971a07818l8335J68445J75778K33712J47340l09860r1111q3569j58030j6435
30961g9883N289N4684l743j1794j47343J19741J53650j59857j75673K82398K25170
30950B62639J2452q8935J09777O5271j70757j01820L9948r9214l5084J21812m074
30939A12015j48876p2792j6441J41900M3070M9611n295j20396q4466l6286K13341
30928G5385J25374l4621O4564K6401m902q9889k19338K29079L15878P4496P4280
30917F36707j88245m0645l0436n3112L4811N7484p9816j98560J76295J54828j11174
30906C58137k62859o5798J36383j20383k33272j73499K70304L35419r2748K52966
30896D04650j02414L1198L6165o1870K1013l1652Q4239Q3951j00207J34234p8020
30885D21287j28479K2143j547J08416n744o7353n2668r6066j62859J3048j77715
30874a27537j71742J36349L4082n8702R6870K23295n3562o5729j67829N0400L0643
30863g3462J83712j7896n5904J04197K6470j31871J8554j3534q5623o8133K8589
30852h4901L58870j02011q6185M7733j33039j87153O8532j72878k60555P7409
30842d74178L80725J45844J7248J61824m5131j47602j08970J27463k0024k0121
30832A7078k9603P676J16177M14082J75937j81473k69539k15142J14000O5266
30822B14459J13127p2252k81175j40788m3767J10026j8666j72630K07077N173
30812g9416q9682J05671L56469K29787l6431k71592k20200j04339L55119m2020
30802B03366k09073j41973O8008R2429j02400j07458p5093J29348L0073K9330
30792h3443Q3993J70785j99135k61641l4431L3263m3104l9420m8100P2940K52978
30781i5315J34517N8366J0429L3306n1063J15336n5440R8557j44021Q6240M5083
30770B35995k36043l3939J53186O3944m914K41306k3681k69979j09707Q2556k48364
30759a49640R2497K58560L165j20272j16739l7606N0578K32593P1586j51056m4271
30748H9395k7190q79k7943j45903K4583q2470j43690J54221M5064K48789k658
30737A31319P5053j9624l50514o6444K50207o1580j93100M7354J05701O6538J04
30726a4986J14395K20251J32798J33828m00327k21478K3282q852J58181j16812
30716B0280j76287N4415r3333o4726K81411l7121k41014K10378J54530j01779
30706F754l15978k5979R4767p6188J00590M7121J23461J99253R1218l966l40089
30695i9036r8547J40928M85124r6790Q489K81100l63469j34337L1290k33430k3063
30684a01741L30410j03354r0093j2289l3832p9155J7974K01692n4725q6015k72577
30673b83705p4172k5129J69229K32829l1141j28987K720K60367j13911j81248
30663a73148J59974q1247o0868Q7512K70246p9198l47540j1012K18545j25063
30653a41799j28418J20974L4984O3649M6585o8452l7212k41131o5403L18369Q0263
30642a7591n4302n2826P982J94796j01589o3625l6842K5269J17238J75714j54572
30631C9652M0226K60741j0407j92870j28429q897p4220j38124J3797q2157r1116
30620c71804L32808O61J65738l2932l06383j34002N6794n0481M3896r5348k56382
30609f47435j1068M84546L86678P4191k7928Q4989k62276j1720l3543K0914O2219
30598A19567l7224q0500N507P2035j85742L251J7275J77136j30134O2163r6960
30587g3626q0443j25485K1626K10127K52111K55623j63984k86391J59638J75339
30577C44535j52364k09921L5195n8524K08006K33690R8403M5684j09927j26877
30567C07900j88269j5763P3223K40903J66463k78056r7543m6078q8949o2624J95774
30556B06981n4641M8149M2418k73890o0037K04152J18473O2776j02078j35363
30546E6940k7553K95813L1378j09712m3230R7545r1214p2669p7858n9169l80697
30535c80426k21749L65391J05000P7387j23098m4996k69014j19072n6407o6473
30525g33457N9973M00739J67156Q3700K1224K479M6369J09443N3297l84948O6362
30514a07663K92865j82060j73558j137J46520K57904Q3979k03403q320l92229
30504b87102k58795k43692l2624K26505J49575M4237M9561P783j0586J93779P2042
30493h9317R297J47926Q189j51230j26511P4376P4623r3340l5819l7289J1807
30482b07288K70439Q4454m1111k6973p2205n433K72377P9227k09740q5495l4144
30471B4108R038R3048l2834J8278R0667Q8995k74686j45836J48431j23967j77866
30460b82624L2470K2992K8552J35336L0002N9879P3718k2233q8838J7107M5040
30449E1401Q7271o9062q3416J08217K25845J35488J7037k15937l75473k60542
30439c79171j64829K482Q9374R4427N6397K40374l9241r4611k95258K44638J4036
30428b31382K3243J94722M9643m2222N1165L1804j07880J17203J29972j74519
30418D1749N3468j03057K07247K31123j0806o025n6701k34290k22354R5536J13597
30407A09487J41115j23083n2571q7795j6350L1807l4716Q9636J0862k77442j13345
30396c22395L1107R5766M71o2304J68858j70665j272R6992M4716Q340k1544o2128
30384a94058J58l76850J93859J48875Q3644J86555K09533Q3816J4424j62011j24276
30373F3669j91081j0891J13737J55273n5476m8235o55p5654O9997o1087l9627
30362h0030o9048j35678K8372Q8217q9751J2047J66992L4470J55991J80220J85883
30351D77685J22470j93742k95054J43306j07035l36731K1229L1582n1999J98590
30341A0301J37470k52181k18949n5268J59063Q4843J53483J57769q3271J06894
30331B00154J13233j3251j74995k56523K79115L0303l39423k30604K92577J12940
30321A3526p6347O0768J59536k01896Q4520Q9297J84534k63326o0187p7100J4536
30310g2139J60445J47653l0865O3497J5977k35125q0414r7449j83355q4232J35653
30299b60354K76556J59481n6155j6152j02595k76720p9545l5498J52221K16407
30289b2354K12407J59566O3372k52720k95188j68480r4003N4467J53557K5389
30279a63987M5319j43761r3031J98729J22534Q7278Q1789J35664j72033j11436
30269a2935K7928l92103p6838P5641L5071Q7518J70940K60987R5170n2379J47671
30258C66671k34126j81140j07003j96207M4223K24746K06022k26416j27364j4118
30248b44712J59855J45391K4342n3750O3196k52044j8359J54322k37723r3877
30238c53359O9858Q3568O0731K16562k59297m2200J52091J33354r8771N7278Q0101
30227I9916o2032m1508k3224J4264m3703j43695j63791j36490J33915P7083o5920
30216c55185J37191O4906R3588o786O7862M146L7425J57375J23502o369o1204
30205B56451j25564j98581k8892J20157m2826k80464J0129j19254J26075J25231
30195a57538r6926l52151Q1598J48747J49690J94937Q1014Q6366j33610J4713
30185A6840K04856J89775q4682p8450j9165j58219q38l6440j22633k85573m1934
30174d16463M53600K54670l1497J00719k3093q5409r7705K42396m3156m38061
30164h3999L2835K93109l9349L2518J98293J70177o82k64388l5077J35262n0209
30153C88490j87266j21877o2723p1357K287j56993K57655j16424L39343J19201
30143C90336k44517l15140j22347p5375J23084L34279J96020j19759j8438k22799
30133g4656M447L04402J94157k36203m38438o796J94151K88210l1858K5100r2709
30122A29807k6913K0712K88822O4088l00716j60067J39934J38233O1496k85571
30112F9825j33552J34524J62228n4807j95100Q4995r7979J0938q478n8888O9606
30101a6688N9411R2334J49689J4407j05116N88j41845O146P6026L7450J6180j02973
30089H5609o2094j97070L064J94968O7652o5242q7921J30309J46062j0187k13060
30078g910P8394J86555p0027j01098j54591J05357N5868q7384Q5684J25459j95710
30067B0597j06051j86673j7236K96299K99827k3388j37145K9980J09539j9062
30057B66687l63381j24214N8586k4701Q5268J71196K8878m05919k27754o0808
30047e96162N4965P1755J54798q418K09639M43301k13477l35083J16806O9542
30037c2334P2609J4450j04478J80118Q5547k12246J04229J99234j41195m3484
30027A22450J2861J29680J01062N675J16456j72067l92705M5975O082O8327k5460
30016A8336K6185l5457l8456K47171J5463j7298j37461n7926L239j13109p8652
30005a67965K34753O4506N6345K04029R0530j03994k05306j32805L528n9844J48833
29994A32610q4722j35362k1031k55313k78752K90470J61123O4630J36299Q8484
29984I8436J13841O1381k29783K928n3017j43147J20716K9540n895J84780p3460
29973A06320J63526N4926J79707K1950j92561k66041k30379P6678K66624q516
29963A72234k19515K4764n6156m2608J54584q5601j52560J57386j47296K4158
29953a70610J62987p6283J36473p9005J4047J91559q7969n2744r091l1038j61683
29942a63357n6428k3267J03288K38140j08934l81281J02165L56179J99963O6458
29932C32926J34400R2443j7066j61390r1324J6683L7952L1741l44968k51432J90471
29921b9564K58351J23597J39760k39462Q3809J5371k36517j51616q8271M0179
29911h4363J94604O5154k06198q6422j48442j27590j14367J49842M58782K53664
29901C54664o6969p2016M0470j60175p2023k5084n9749J50110K321j4659J4465
29890I1355J67009J14717k5820j56286k32670j83159O7413J25102J01436R5389
29880A64486n050L4647j12559j14334j04862J4303K15091L84681N153p1379K359
29869D12536m4612L7173j49055m68057k41574O7954n4553J85718K09126k0347
29859f5691J4420L33244K67231k8164k17547K4340j51630j92933k11026n3526
29849b81282J91865J97869o7752j81233R7869P941o7614p2452k2633P4510o5849
29838a88761o1036k0711J12692J66085K28830K65503J60026k31576K4683N8509
29828E14244j24738j58883k6134J25490K0390j61640k1325j96151J6023O1639
29818D8915J8343l9178j00573m0962J15978J72305J77031n9527r7392O000r6799
29807A04141o9100l5309m9428L0815j99663J50607J70373o2265m6282K21859K10248
29796D25996J64409J29898k49661m58096j51689J27798q7797J489p5543p1687
29786b44883l46379q5139L16688J39562r3472J97654r3884q6631J48538m7519
29776a95465R3185J7771O8843r1357J93377Q1563k6647q5464k03120K7900o9627
29765a89041N6095O6320j36007J50457J73643o4417r5558R184r4469J3090K26716
29754A16013M4961l32839j50933M5187q8287J05535k8794J76759J03916K48099
29744B39617K5742q1287j66433k32132L8969q4191J71940j59273j28144R9137
29734b76055K20865k92957l490J77484R1448j47622O3588j6653K21772L8943k19537
29723a42214l06423Q076J87374J46396L6388j0709K87698k2301j19990m5920L7310
29712E5685Q0919j0263j37381l45661O9646J11748l1879K56414M5850j41649m46880
29701d93451R1752K37817M0902n6263n0581p4061M7057n5292Q4792J18943O1300
29690d7085J3334k31721p1722P3149J90026J20292j94520p3921K2353K38928K59466
29679B98579r1190J7648o9161O2262k1038K3303J4565J44612K90808K00260p1326
29668G99322m44847n41394N8651K80530K33431r547j84184j2377J77720P0402
29658D27707m0648j60172k17121q9775J58253M8679m8209J2679J03236k80371
29648h5742J8155O3854Q7824Q0414j36677m6679m6962j01989j00011K75540P6405
29637H4132j87622Q9527J32067P5606k44204j33873q6590k3106l58207J18879
29627e33391J16609K49804J12882j21162K53265P7187j28827O4906L8992q3104
29617D7161J03289j06923P7949J69691R9631k95416l90697j88597n1372K77425
29607b57859K45595J99944o2653j44221m05583M5108k9717O3511r7696Q4197l0312
29596c89686M4921K8926J67248P8726J6289J5818k24116J22004J16119L2242j895
29585F596J41142m4145l6777L7972M3619j99212l2079O2345j24115L3505K78227
29574A67078J44208n9347k74062j77341N8164R8041j60731l57978N4406L66705
29564a40857Q4841j42J27564l1632j21382m675l4978q8649L6985j3705O487k1220
29552b01363K88201L6620k26552k57726J06333K60786M5991j10299M554L533j51090
29541b01012J58358J10298N8742j13774l6627j96860m0394J58879q1872K18740
29531C4478K06916n6441k09426k54854r015J10721N8294j56739J23004J45495
29521g567O1135o7129j50569j00794J56129l8981r7434O2918L14531J4378r5047
29510E1570J48937R8822k6602P0715o8611l38660l80981k4424K88550q45r0618
29499b72147o9381j13523K7704J29920J35057J7537N6606L30311m5653M3717R5997
29488C36145l3516n3181n17Q454o0750n8668Q7588R0621q932k57056j27804j21142
29476a98758K71912J86024J31795Q5501R2198k01091k87327k56992j67422j13486
29466d57646J06203M09806K62544O4138k93432n7413K8328P6371k91619p0335
29456b23055P3667K4414R2078J40093N4363q7755p2060R6671j31890n6796L1120
29445e9150J17884O7000N3701j35196J35898M6350n8394l38876o0632p3895l8433
29434c43743J32768l685K30242J90491J78047r0989l81128M37O5746J17542n8546
29423C7182K8879J30682j51633j96774J24171J5023r76j60002j76579J10085J97245
29412d2697K40750p0240l06064j02196Q7731K31535K00815N2617j47978q2685
29402F1588j5931p9448J18581n4107k8670q384r4555j06788M088r6433K0177K17858
29390f2024N0174j54679n02Q4482R907J03787P4293k24118j11702q6660J5368
29379c01674J35392J55329k57813r3956J60448K65346L9459j7069j71734k83101
29369c69373j30538J90631K27117L39583Q0125k66984k06861N0823K7568L4633
29359b3276l2263o5504l7833n1187j29055J91639n0350m1455J89630J17741q2978
29348a4891N0910J86580R1366j07051j07298M5544J63518j6991K8529J54957j66818
29337C08355j34659j22783Q1577l7447N4215J24410L5026r8117l89649Q4982N1644
29326d2446J02068J6500j17075J39223k6106j82833n6259j43725l0945K96384
29316d5214K01902j16720l2496J77453J45140P5147M8399q4037m71503l62292
29306d64221P9541J76830J81702Q6348J09186L68144J70144P3977k42583k56329
29296B82739q8686l32777k23972J60810P3862k74033P4236K55199k2310K42196
29286A47264J3967j45820j23739j19490P0864J56449L51806p4809j64630o4625
29276D7237M7532k1986k12296J63064J80284j37068k20718R6930M4940j0J21453
29265A09362k4740K0450j14803k03686j153m9994l8056K29322L07715K5516m14302
29254a54369m24907M1251M11549L28255J49236k15382j02726P9168j16560R0252
29244H5767J66023p7608k26802R376j09836j13341J09508J10621j14218j64400
29234c24910J11607M2037q1499R3939K1021j9677m4798J43470O1884J88417K05769
29223C97260P1977j47171l12245Q3489K86490j15880k60870j9735R6606o1617
29213A8304r7434N5988O2576j49511J0670j3908J0236Q3825K28033J01328k49093
29202F1014j0734K07160j42740r6895J45439m7786P690P885j54219n6200p5816
29191a55202j53469O1894k64724l2883o6791J7230M68947K69795K6779r2921j59476
29180h0821J71855l8257j47668j4245L03590n7484k54006J74218J17842j11461
29170F3563k6871J22084R8073p2438k64459k3435k70266l6079J09531K6244O6249
29159b07804J07053O3801J3795J34446l4692m57178n9777K22602J86695J6071
29149a4988j15079k98924J10716N20856J69174k5100K6985l85877q6155N4600
29139d3792j21412J12435L12251n7555N7404r4661n6115j41886j34783n8514J96340
29128c0288J22007m2394N6949M4148K46N7036j55692p993k0062J85889L97122
29117F06968p6270m17065J16785J16416J7143k82328j78262J21311J49301n0918
29107A23081j06596J71442p2971j66105k1019J5103j00164N978K16463j63776
29097i8564j28173j93892J95163L47697J16431j60338j54821j5651J02228J65594
29087A75674r1122r5049n4000j53325K39814J56139M092m3625J31015p5801k9144
29076A64668K12940o2587j17498M6698K7641k15985n2985R8235J07435j10865
29066I7697L9917q2063j61936M2332J69876J32685j35795M7779o8712j38105M4904
29055a1421o5004J56379K66014J35752k53779j61599n449M7407J93919q2466K2453
29044B42206N2105K377j43228n8751j80967k18836l0937J72557J13767J54716
29034A05009j02463m86j24151m8723K39571J19446J40855m5901m89530l18829
29024e25202K05737K43374j70892j75416L4068k1382Q0695J12763M8525K45592
29014G7862q7615o7295J96955J40298K0234R6497o1478j20346o9446J80328q1704
29003B24290N1268N2842K5623k46662j04267K32884J07224j18720k66703n9706
28993a01927K37153r1878k51191m9710R445J07066L262J02484l3834J10689P8736
28982A20295j28296Q9174Q2138j75437J56865J51206J47236j03855k27650O2434
28972A74110m7985j39960k55248l8221L16741K30699O079j79201j8816r6591j17284
28961a65677j73592J62387L24678o7604j43542r3428K39124L4937K33834m16131
28951f5014j73910o9383J1034J07491R501K22068m7382P4377R1834j20499o0252
28940b0135n8518J8615j94084J29974J87510j52525j07872K46652n9511p7604
28930h7498k15136J82672n326r3847R9274j19510j34642J74707p0347j42859K92737
28919a19775N1086k70057j26947J30832J76698Q3113J38913l6466J14120J47530
28909B89047J31508J72853k65194m64419k62302l3847M436J65166J64570N8954
28899c9228N4657j1075k79875M0832K16327J35485O0097k0638k45174j13574K35951
28888C3785K01308k5877l49672K06324o8901P7353J89941j87940j7798J06694
28878A65217P5871r1682k23979J47530N4089j80471o2767j67629P1629J31061
28868h1131N4352j9031N0636j08488j35966J9296M7398K65929j715J4794n8295
28857D7779l9047M2811j47738j33092J94853K76984j09168j99771O7526o4847
28847f3710o571O2387R5945Q7145j46833j31525M5548o9393K46892l4718n677
28836G9490O3652J15034k7740q0977Q1355m8928J2699J5709K0783J89959N1421
28825D72457n7466l4944j15477l19j4731j01742j25248o7510k62479P1550K31147
28814d762o3009J18663L8703j42749Q672K96460J15112j06743k13054N3430P4065
28803A74788N6231O907l33882J70698L1729j21848L488R934q493j16389J09851
28792a6986P2311J45162k61328k21359j1349N1247J00679o7874M610J97386r8187
28781a05688j8098L00904J92618P7537j67116j75692k79445J84335J50827P6731
28771B36913k52643r0563J77873K00676o8564k44049j48682K5785K57550M5910
28761A40206n040N3167J8427K1231n7543j69760n8391L6922Q8002q5327k5166
28750d3272R6497J75946M1780j10432j29077P9348J9733l2063J1439L1285k05742
28739f4558j20676l5145K6885L9889M7416K25224M3638L30167K8007l55045j96719
28728c0917j24892L0063p9187O1781j12684Q5458K26861K8609k11165j00069J8648
28717b07494Q2652L77944J12431k60597R2781J13140l0091J54814J49218m51406
28707A33392q3196K37818M1061j23718j81960k2900j574J8163p4243P0150J98886
28696B11879J12308j72654j30141L4976k07295R323p5167r6623K96380J42830
28686A25816k60657J58310J71614R3610o1107Q834P2955R4545l04760M5209K10768
28675C55137J36486J22769J2334j97384l78478j53767J60538j30486j17580Q441
28665a81990J25778r16J07082K39015k26059j99254p6359M9019J20340P4117n1855
28654b1082J09153K0944j6300j9834j45624r4641q9680J38400K05434J78547Q8931
28643C54248J9936j60992o9093k59920J01876R0628l21101O5346j43568j19034
28633d41674K77015K85448J99397q3363j24057j38783O3889K16879J23129p1756
28623C06124j03176k41699J69918J78719o0687k03839J49535j23727k2813j18962
28613g0607j8232j42383P113O4606J10408o9636l63177J34311M49664K0536k87120
28602a64517j54262P4586J39612L38721k12926j53077k10295J07029L45837K25587
28592C36295n3304r6246j48438O2324j07653n9890J18205k8154r0653j29840k5668
28581b23022J53518O6557J35628Q0332j68221r3162J19550j3246K2574K02786
28571B83294P2979n3539K6939l01292j94950M3516N0223j81434O526L30282N5139
28560A37683p7887j46672m4139J3245j09922l1176J90611J64748J7143O6661l222
28549A77073k09306k5810k37355p4258J30972K48559M14234j55341o1530j52969
28539E4269j52691K25125J96722o1576j27062j37610N3367J03621r0061P7125
28529A41229l4229p6813j72336L9359J07557j70292K2817J35883K59722J79025
28519D31922j79309J7773n0883k42159M1077j78658J26161J50173M7501j52847
28509A0751k34989m27291p1324L10680L46400K41093J47225J155k07633j61913
28499d5846o4309J68690P5771M6456p5014j26008J36434j04797k94256j87717
28489d70596K90534K45717r6214J41099R8759j13536o9746j58052N9854l434q408
28478h4023J85406k33356K3532O3463k52021j35949K19299M05087l786l598M7241
28467B31295l917j3642L9289Q2071J41793l2635l0525k55604N3437m4939j5604
28456A51019R9107n2646j29053P1500j66517j29243M6566Q7720J76397J1561q7621
28445G8790J19778m6578k1969n8042J55542J64892r131j94203j44892J78597k2360
28434B00424K6116K04392j32673j55114N8651p4099Q5487M2347j846k0963K1229
28423B53951r7568n4917l5038K05378J04632j8095j52446L2083M0900Q9397j02930
28412B65347n9711j35272n8218K83215K61885P1207j47668k39567l66806j22022
28402b47610L96312R3203Q8219r2034k42664j69962j01474q5801K13085K6583
28392a22143k03402J68642R9720k49255N6067j940j17770Q242K91972R8820R12
28381B9865j02383Q0849j8536j63502J732k9908r8807M3224k6546N3317k2481
28370b53176K25378M1115j02163K09034J26482j59466j47344J19768j33258L0977
28360d2653R244m268J47622M0460l0013P467q4516l5642j19548Q0569J84589j9052
28348A34259R4639J34378q1105q9084l905j14366J05221K00366J6359j39308k83466
28337b6012n395Q4928J41103j30149j33937Q9289l28832j23311L3425J02774L4255
28326b61862j66556P7548K97139K56303P779K7578j48991O328k00896L5055q043
28315g8618K70581J78071n0556m5266R8416J53027R3952O7374k77351o9894p0615
28304B69121Q71k37566p0037j73465j61684J88821J90507n7594l32921l10663
28294f94610j92849N02744L59192Q6676J39600j30094n9451J19958l9044J3456
28284A05578k1183K2731j01249k79676L15448l0176l40382J65744K21858k27227
28274a68534l0238L01020k96836j15193J52750J45098Q083m0827P6930j39685
28264a07432j00646l3213r2943J37234K99482j20496l2723r7745N5650j21658
28254b14490R7542O249PJ60844k5169o4574N2440j5179J48620k82139o4092N9297
28242a40644k45513l4861K35170N8349k5460O9511p2953j78484j47942J22327
28232c60500j09479m7853J64241K23676K32825j08129k00446k22771O5414K31845
28222a31177J18088k24045p0963k5207K02097J27448N4637J27040K29532j13037
28212B94413k28790m7044j44261j17512j57405Q6582J64648K8797K62468J03919
28202B45815k45259p9046M9633J13951j60864J82795K46391k45201j90218o986
28192h8989q8095K8970O7737N9022j22531j55276K283K22296J08343k08764j24876
28181b99880o3702O1972L43182O3117o5321n6867k37642J2075O3753j47579k04446
28170e31338K18033K93191r7098l03633m5907J66847K34283J604o9306Q1416o4204
28159a16112K26510L8223J1339j38632J6714p4596o4121j3081J69809N0453K4278
28148A30784n3084N0466J58129J833Q8958m6451l55795j40035M4814J31706K50470
28137B61795M3888p5390j73861N4381P2660R6037j57363j98426r7235j91622j88799
28126e53935N1413M60369R8773L1809j50408j65936j85368J27068n594J91196
28116a00613J39401m7890k95830k55424r0210K20468K30558R908j31248J14465
28106b06415O6344o1502J16285J94402j05103j00245Q0202O574J40937J047k97405
28095a64879j37668K87191K26171N2351J32780k7751l9785j29673k9371o4950
28085A04416j33337k2682L11517r9137k22803j42128n7995k2456L15885J33547
28075A64827r1462l3175j39620J7886p0614j49701M47878J34249J27673j24798
28065B83143J28298J07849r8661j95753j55799k69858j48027m2904N1740M2249
28055b97723J96907J34097n5270K56154K85400r6468k52338R3603j53686j26762
28045a6086m8176K7283J8584q106K66718J27074m88291j49472K04159j35162l21428
28034e22903q7579J60694K21980j77608j53977K23191J71708J09184M9949j61592
28024a66953k16520k0840J47721K32136J19516j68948j83010j06107K49991K13120
28014A00106K25040K8576o9623Q0839k23387j16558M2237L2014k36876m9135J02525
28003h4242M70p1070k7083K7057j58786Q8237K56738K1377J02761K56764N287
27992D17510k7495j52035P531j2211R3887m1699k11870M1808j60381j3534J81144
27981A22655O8571j13176m3970R462k12628j58241R3057K00860R2139o2552p4207
27970g8030L4021J45213O4128k9234n1769j49278o9637M274k21328j01312K17741
27959b35211K54178J80481l7641r0601p398j8768K80838j88162j12477J50372
27949A75611n5469j25772j3196j88090K58J47966J11224J73303J0475l7476k44468
27938d5634O5798J23622J6418j19623j12365p6643p8758J85336q093O5926Q1513
27927I7497p0053j76265O2721J74710J3968Q0102K7915j27567J1242j04154j36144
27916a46028M1653L60206J27548j0902J52780R7001l37989l67499N9278q0272
27906a04224J4147L96465N9352m03099J69382J23982n9466l18864M5245j6536
27896i3616J83374j36389j59880L69216J56913j34233K5290j63538q2097M9960
27886A5000O4544J72157J63118J1994j56142k59996l35539J00654r1491q6085
27876d01786K1385J23805K28551L18098J97693l17134l02959k95292J33261L66616
27866G2238J23010j43070j17853p1574L3893J02162K61432R7590n3334K345o4821
27855B42018J0129L5301r4560J75169K81119j48133j09474L5611k43908j77914
27845E358K49243J50334k71281k49086K60431J90850j96843k2297J789j64714
27835d6216J79768J98103M8391J4203j41489m9386k73510n777k02669j21516j18745
27824e18843j4312l3898J44148K57307R9621L26708K13808k68148J33375M780
27814C44546k13796P0191n615n8304K9697J8881j42748n9265n271J34087P7227
27803A89630j05100j38707j149p7941j94192J6113L12509K29929q1726J51626
27793C00992O2220k9744k59947j14439k25199j04657J64919L03309N1263m3793
27783A04924r4101l8683J43307O2778P8665j17300M1796K48777O3703k9227N1524
27772E16163k16753o1277q1973k25563n8517O9751J07900Q8313J87684k55006
27762G0722k30386o9737j38190l13655M0394J43632K00159K47255P4012K08073
27752B32279K058n2093N1247K692J4987l04868l08342K04256K97447J60579k21692
27741G8550k98481N183K1684j65580l3089j10038J25957j50141L9671K41840K07113
27730c7331r8056N0854J98254P0969m2066j4400J16141J42527k6250j60867o4916
27719A34859k44406j12508K8291J20255n6856J14814j33024j80916j00972Q8368
27709c42095J14380j16348L06779P7112q0031J18199Q1264j30769j88886L143
27699a57252J29423K89090M2616J49083l06663j82259O2887j82691n4611K95560
27689H5183O9502k0867O2584O5050J74134K1953j46467j61232r950k98849k10429
27678c69388o4390K06848K54682k09642O15n158N3062J56453j91653k23558M4684
27667c47445K54249n1175m1895j28066o1367J15838K47321K38266J16814J17811
27657D60351l31710M4728K2749l19239O0222J89762j83322O2757l8521L0791P1797
27646G0365M9773p8341j019L546J3547M4857m8132p951J78958N3625J19580r6211
27634C02597j03464k62739j81478r5537J72823m6547k3134m4539l1298K57001
27624e6315J90049j36874j85002R8696k6472k29640L8471K65460J04421R2507
27614A55301j00955n9654J56303J08232L241n4739J58731J7094j11434j84761
27604H7359K07151J67174j54436K6289j9217m77473l1661J46094J4572L603q9497
27593a20042N6047P585j68882j44182J5882M15596L21707j2261j994j40453M7753
27582B76756J7962j81057k39118j07172L14945M33671k55705l49637K85102M4355
27572B40102j79172j09184j84264K55558K70679J04671j16671j19975P8674k7357
27562B13061l25222n2021R8555J25187J32324n7841M1493l6936N4379L3920k1518
27551B05381n7093q7104q9390L79754J2696m3326j07869Q4813J36841O8621q6904
27540D16420m9634k34087j53550M2557O3410J13438p4088J03162m8434m6212J21513
27529B54495P9961J26465k18702l09907p2696L33783j85199k25327L6226J84310
27519C409j6671k84715j95234m3523Q7793J99018K18202J08384K48895J99383
27509E24941l6171j85239k72971r1890J6709J75590O1064j62122N7508K4526k15034
27498a03089N6724j71847k1644N1141K03829L25837O0451p0200M8604J7679o7795
27487C29690l20374n928J9871k58589j10074L8692k05845R0861K16820J06341
27477i8535m6836j17483j97981K29044K14659j8834J91038K39578r1613j2433
27467B90604r1899o2796M233J76152P7259k01665j51276j24822j0629R1151m9037
27456e2725j43013J7649O7493n7088k37245r7724M8469j33189J6989J64929j18549
27445e24004Q6169J95418K04438j51783k14935O5063O3029p2669p0948J76690
27435b43532J33357j9200j13348M7902K27845j58111Q1479K34010J83583K17423
27425E91408J9625j63214J80427k300m18233j41181j43827K43664R9017j31929
27415A33457M2848K12194q4994k16244K64465o8432p5176j19610m1067J00280
27405A47721P0690k53200j31329J08601J05837J24021j53253j06320j8226J28862
27395B3404O3183P489r1185k21585O6159K97053M8209n1648j43242P4996q2602
27384i769J4570j37077q0740K63820J11597K35410o5222j73459M2913K45770l4845
27373D12968k48288j33372k28945J16042n8574k4337n7243K88498r847O6189J00791
27362B23882p058k91920q9675p9428j64327n3851J24449J6287L09982k6955m2321
27351h0935j38704l77233J08410J22752N7997J9947Q8760P2176j67913q9868O6257
27340c18354K74081j09690k49184n9651j8210M0683q042Q7132r1478J55529K8456
27329b68728J37637L2182J05722J76386J54064m5046Q7262L7849r1096P4786R8777
27318D99795j51324l98740p0641L80887p6350j32054k21061P5082J93438K12882
27308C11914j53788k82644l903J35640J31812j82996k4027L39408k74107j3809
27298a6500j3860j71459K79709J94909j19306n5352M8811J2289n36J43504k38408
27287F3801l6460J53457k91572k75298l2987Q8498L09847m6920k95567o8356K55425
27276a76132L66343J30930k71217k94848J3542M0526r5216J39225Q5116J3857
27266d7874m4120j01895j19247m9761J05451J88306R0872K9454m2653j33553j25377
27255b50397J18381J23842J5527O1030K1855l2639L5583P6723M0529L8781k24544
27244B4671K3313n7799J61778m9660j38835l05247k48840n0061K65319J86869
27234a88492L512J0964N4618K913Q0901J42032K0684L5822J8674J7766k6621q1548
27222I1225j9120J16951j1995R9261M1517q3113j03340k5461J32874j65330m7729
27211B5740O8126Q8327r863o5513J05491K1278n4169j03451l12859j44408J6063
27200c65238J40109J26877J44195L9508j04772n2264r4425p9818K47380J94832
27190A96384o7323J90133j86634j41440P0315j17185L843J28480J70222K00305
27180D47100j42964k00423j82567R6514J63688J52729J63265j48858l68404j28873
27170a48793j25755J48146k8410KP4139j2222N1407J13341j12247J415p6311K70420
27158A55132J50118l66767j29396K23128L00346j48276q1174q5355j71663P4258
27148g9649K28578j3900k685j11076j37755J79801K30069o2841j02492K5753M7163
27137B00966M9236L938q6984k64642r3478J19833K04942N2020j7718o5419J75182
27126B77876j9929j25640j51181m4406L0719J3738j83594j46963J44258K61623
27116E6501p0018k80727j97108J97118M37775j11678j54950j98858n0135K44640
27106a27440K48137j81716m7965m8769M7529M4833N3963j49369j22865P2498K65972
27095E4808j41983N4564k25918K03485K35928k07816k20819J9940J10807m4675
27085a61679N8876P3856L03882j59147j85361k92781j10247K64445J67742M0657
27075B43p6102j95857O4339L809j81684P8598K60772K38969q8648r8514m7100
27064d1175N0255J92905J67445k72405j14143M1415m7178o4381L051o8492o8545
27053b21248K1214j65113K54334L59041R4398k14930j61499J76684R574k51690
27043i9235m6025n9380J68202O8223J52385k20703J02082Q8400m6688J42124j93259
27032E6126j02131L7379M4905q0987K09969j49591k66842o3217P8232J77615O1763
27021C221Q0239m6984j30925j30473k3826Q9333O0285J22186K65462j05610k51747
27010f8839j8134p6630K7927m2155J07531J82288j87516j60847K00782L04653
27000B69060n1871j11578N6581q8007J5462j42956r524J42311l3161q9811L6088
26989g406J41426M4496K55682K52074k69136l03651l2311P8384J28784m5972l39661
26978i7291j71373M7115o6082P5883M7874Q5478K07295l5049k32528k6121M401
26967a60398Q2098L08636N8981k62682p4338j26322o5039Q6340N2897N0944J57023
26956A08140j54406N1763J8177o1699r3282M7971l9677l2377J3345K14342j28969
26945e6672J4962j75469j75224J69733K67881J10179n8274q5454j30426J8416
26935a00348J79818n3887J11480J18596j84644j14133q3777O6414J45481J60020
26925B45020j33201k05187l93106J9506R3303K20514m0769o1049N755K28372J6898
26914c944R9713j01935j08931j07273j76419K8036K03725J17101j07940r3540
26904b51407K32555K00927K8483J49087j40177k25386L8372J28654r6364J22802
26894A87546j02276j28437j1343L7282l3490m5702r5896M5568R2510l20852r0182
26883d65272L45938M21286m3425j34748P5485o1971j42861k1806M2993J79442
26873A95061j02633j35096l0535P3836L0620j5573p9716j0336o5947J55404N1390
26862F6475p3124q7252J00126J76325J29506m0273j28725j63963n2078L5601k2395
26851e9777j64653J83125m9205j82999K66930K42312R4719k52889l66025o8998
26841c57460J39737K55445J13200k76324M0834J38131N6002q642k301n9869J26239
26830A64992P9274L7054j53518K7737r3387j46719j02276j40491l3035L99032
26820C8663J77064K526k22535j49494j87839o8483J20984K7486P9982J24725J45873
26809H8952L0464j80848Q2534J23509k12896m684J24636P5461k57822k3661R0645
26798f3710k6975l59017j43652J69947J55561K11766j66397O555J12892m2349
26788a45379L8167J81997k21693J43284L53346J4751j33101P4397m8695j17231
26778A39843O7162Q6386j78794j23176l9767j19364q3038J3817p3038j82901J0078
26767d82792K19586J29676L36715q5528k10403J26686K17472j63903l05129j1072
26757b28692K35664J71011j71630k38336J62062L59766R8804r958K8362r4002
26747C13051k37945L4304K09032J5015m6562Q1643J80654k37583l33692J79425
26737A57342r4564j96359k18955p1298J85946J10835K5253J31599k04606R0056
26727h4751J24183J72882k2039k24778m6706K08697j79176N9769K13524j91088
26717C0517P9052M44k38889J56633J81244m2558K7989j77079l31782k33869R6295
26706d52003L18800P80l5347o3704r5667j41803J19864R1877L45939j6547o5945
26695F244Q8331p742p805K04092n092j21424M318J2011J25584o9389k27339k7154
26683b5365M9314j41588q3260p1272N5137o4581q4162P4603K78113j29333L9500
26672a02894l327j29390k1833N3530K5624K48071O892j35909J51782p741o2080
26661B2725m34315k49219L51984N48910J79402r3706R9145j6667O400j00381k08349
26650A05929j69077j44450j99060o0987j00805K28687K31689P5690M7420j69025
26640a53989j29516L33392m7773n4360j19666K07124P460M6413j12656J24289
26630A00718K44851l34529l4931J83241j96728k17368Q8934J17137j13222q0250
26620b42147L44352L305l1287l2415k2830R9708j5752k19022J4191J45732j10104
26609f6269o5985j41289j3972m7029J8379J74615M6976n7560P9191Q9206j61230
26598a44967l2009r6839M5364K9267J31423j17075R7280K0457R491P2021L7858
26587E2271J60455J70849P1256j25547j36067k16843o4929J59243q6409m063l2707
26576e2491n4895j84330O0705M7535j08536j26554J46266K75771J18980q3254
26566C9197p6046M7167P8327j53994j36566K2361p7864K55080J05539R6609K5732
26555B25542k14690l03186j99223M7741j759M5642R0453K9006J94184R6611J78074
26544A88395J36036L5115j25165l95127J63297J5619j03890Q2681J68212j1773
26534A53400j77486l7781l4274j48384q7137r1740K81008K80976J26483j92238
26524G2827j59147J12724R8238O0230K49098k66577l77918P5590J33879k01418
26514b02474l25296o1213J81519J87554N7384J05367j50466m5893K3100k1593
26504b52011J45721J0907j7223J4461J8189j9686j00205j98759j9920K99360l1564
26493a50730j50445k7255L02354M1116N2792k0799L3949J31780j42923l2691L67330
26482D04478O5358j25930k56874n5371j04790j0064p9107K3258M9452J45666j41679
26471h5603j09519j08549R3295J17233J75596J02128N3505J84310P797q4021j41230
26460B04942o8785K16732J15463j82599l41413j34700R6093J04013J95679l0234
26450A75191J9831K01963K7743k80888l29172J16514J88616J49142j21835j22489
26440B4616k84349j37853J14882K68774k9150n0560R1400O3691R2508O5798j50553
26429F9204J2125q7480J24668O1430k1203K4870n0280K3943l28062j55652K28139
26418i8298j78722j8462L34495J61182J26082k30480o9595K73260J42559J21947
26408E63968j79966m6689o650j6306j71128q2873q3100J40724P3927j67259Q0367
26397A05015K22558o0713n2785l2922K6153k43729k25913N0440J9641J52795J27941
26386H8481k41191l5144P8204N7545J77362o200k4932j93738l7230J34791k0121
26375b2173j06591J15001L39076J26382j96291k36051M8197J10584j15758J31408
26365A93784P6040j85962j68009j56461J37287l203p2899j76309j22496O7840
26355d10388j69748r672n7250J59456J60698K4006n7114O9686R2732K38771J45365
26344A86542q5527r0030n8045P7737J57090P81k11801p4389j46838P7893L51107
26333A84520K23062K4063L1951k0684k77437n846R3990K4606N9745j73438k1585
26322A42947p3264l9280J48254k5612l31820j5044M39148j38968j64123O0907
26312C145k42836k64672J77781J935J44452M8566j75293K53989J59571q2457O9082
26301I3263O7121m5692J3609j24991N1929k8198j17517J54471p600j23260K69203
26290B02338J15885K1575J14995o6356j18294J17133r8448p0218m4561m5317R9841
26279B28573P2321p1756Q2050P6204j51871o9060j25912k2661j52541j70421J34134
26268a70940m3479R2309J32962L0956n5449j95498j27365J71261L18482M4944
26258A98183j79568o6476J94257k7506k1645m5341j21969m0974J78562J0859l01144
26247b22762K00686j87935j65651K29720Q2258P5054p5594k67266l1084J21001
26237b41573O9985R5339j96574k11179k29676K5529M73082L41187J47344k04155
26227F9309m2853q7580k09368q7118O8848K65332J19547L47698l4167k7754K6626
26216D08520O3659k18619k03904j44378j28841J9080M5929M5207j75159M567K47185
26205c6754l14926p3539K46423J11644k26532K8488J35348J32876q0622J02493
26195B4899p5258P9261R645k03516K7597J4083k5858K91182N8815J2211o4409
26184A48652n6422M8279L2365m8611j54684Q808J5533J11412R5509N7410P0036
26173C28287q9621J31726K57166n0599j42239j98931L575L3373k12162k79175
26163b18600m5633j27583J14106J25725J31816j18668Q4234J48811j74361L0804
26153d9349P7993n2539j9286j02041P8875j14922J07493J64391J92549J19244
26143D02408q4009n25548L9693J89324O4599J16532o695O4692k6812k95041q9561
26132a50418j79393J6L44383K33939K0663J5224O1623k92489l3384k22973r2770
26121b95579K36304J53164q2740k8909L34971O571j96385j49417k36195J01557
26111a56658J84540j58368k44843J57718M6800K46112M7784j35129R5514N7476
26101A40946l0704k38081j46843J63786P5081J20271J02173P0700K1277j38690
26091A39916j83298k08606L7376q5281q6536J64590J41828j3680j39545O3734
26081a69502L1060J41273M41694Q5847j10634j18285j62290k16272J0418J88979
26071A22288P8113j04741l9363K8336k92710j54390Q6297O0456q8915K693J95350
26060a06586M8080j36909m7648K0358J28975r5177Q776q0390l4381l7331L0009
26049c02224J25730k0938L4904K22079k749n2084q5048J04280j34927k81577Q9331
26038c03223J71772R3272m6711O739j03203l2891o0971K29930J52278j92335m20
26027h5763M1605L91858J70776K4279L9131m7550l95658k27171k4810j0965L2004
26016i2264J11000J54756K62207j55718j62015k28228r1625J48146O1847q5494
26006g7388Q1951J21895J07576K02691n795k32420l54847k30555q6126n703J16876
25995c61845L20540n7999j68518N8849J71515m7454J90612L9201m55196J72043
25985a38252k9547L3631K8549L07608K58251J15137j93894m6680j35872r8425
25975A00506q4363j86209K4013K8590J1158R5944K18081q7990J39849M1418R7965
25964C98962K1723J44546K7474j02847L5093J16153l7700m00932l25507n4460
25954a77495O4371J57811J07149P5876k2969l17531j37689j0025q34K496K41987
25943a6853o1626r8143Q0674K63576J27068j96626j72185M9294K16848J02349
25933B94376M0969o6288M4858k81829J95672l2462r1089P6447j12387J3964J54136
25922B36367n4057O7053M703L0101o5335j83431p5815j8097N2218j8078J79972
25911A55601K62574n9794j62613o0732K10436j04890p3863J89712J97334k62911
25901B90854l71216J78496O518j05636j22329Q6120J06985J17535L0564J48022
25891C65913j62785J81419J18235j17416j63324k06871O0236J78507j03074j73644
25881b2804J51550K59519j74705o1105P7222K17364j16509Q9992p4075k45024
25871A01425n1090J0816j32542k58635m3987o8658K27591M026J46088J80621k01237
25860h5582j41899J75704N2592m34216O3239K43018K05322K53065R26m6012L7389
25849C23546J7417m0409p3088J96127M8218j48995n5358j62082j59691K4132J24578
25838I4395q8598J36969j04943l22751M9127J80992J1626j01886P0410J07049
25828C2390Q2721j29691j23816m5770K93859Q267Q3474l7055J460Q7918J60016
25817D13773k77809n4127p2662q931Q9805J36043L6382j9207O344j38056J26532
25806B38087p2829k76944j31755K10826j24256j80406J61210L66713K84600j49315
25796C25931l10989J27584J13459j59617O5796K63016q1186j69902k90327j19279
25786b35514K29104J09198J33230K9063j12794r4197j09153N8369J20812q2800
25776D5318k35862j56827p1265J87208K47498J42561r0720m4017k3041L6891j26870
25765h9126l14295k0480J67403n5961o093J59207N5071k05406m1068J9731j24047
25754d55064L7099J70191K00665N5119j45303Q2536r7456j53570J87693L19492
25744B01402R5351k12625J1370j05640r869R6240n4990N0938j61695j75897K61996
25733c419J47005j33045K6809J86337O210k94514r3640o1501r9406j25893j47081
25722e92138j03740k1536J88570J51870L13541j28247q2717L7917J62468Q3275
25712I263k7626M4054r0314N5128J06794J31309J18159n1326j13023J42711M9625
25701C74754k4362J99611j94557l57377k8975P5229j051k78610l3651K05218K12556
25690A48785j15687J1985j54650K2406j20974J63965L02768K8185r4785P3791
25680B65789k9462j06283J38461J15370p6555J22341P4735j84858q4322n7826
25670A77390l62334q1935J18938j5667l737n5966J88877J9961r6155Q4240J28314
25659A01926M9529J75311j73618j32612J09592J35103k1343J1729r0144j53762
25649A1711M382j94827j53139k0883R5723p758j98619L4564j01504L1115K69928
25638b29307O9090J72546P3906K11145P5920P0526k37072r5752M6625j82645P1958
25627D6940J49871l246k66830j31839K24336K46398j28363k00954J41814m6346
25617C1781m342P3764m3856j5856l9042Q4569J3489q1407J11591K9418l8896o0542
25605F0671r1880Q8110k19552q9007R8941L60601Q1297k35887K9511Q0715n4608
25594A08912M2021K5127j44364K7763k24614o7757R2712k6013J48343K50682J88199
25583D21011n8006k80955k22640J34179R483k714r9498M8664l9598k4168J20128
25572E886p4851R3999J73567O5473k32951o064J22540L7802N040r401K87680J4432
25560D83152j74577j23941j12478l9967L0336K9012J9362k13112n7919K8004L43781
25549B11653L75952K099k35986j84557j71147j77241J00192K7071R2781j26817
25539h6000l2048R7108J0393K08439n8147P8186O3382J1806j33741M2826j7849
25528A84355J37010o8992k12478n5048P9854j5021Q2571k07794o0240O6328K26533
25517A57078J25045k42609j75609J39385K43332J13480j28404n6712j25609j84895
25507a35518M8918K06319M6860o9956k57459K02746K69667l58271n19613r8599
25497f64906O2124N783L72534M02682J10640k97404l10897j11110J71630n3630
25487c12554J35047O452N4755l0239j00812j52094K40053M39138l10811l25884
25477c56949K0828J80809P6237M7091J38133L1392R595R7236j10878j19599o1237
25466d7342m707k03940p1828r2053N7522L66875L3196j49226o1452L5810M877
25455a32268j30447k23852J30986l6461m0463J76076M9154J65338K45819o827
25445A97055k0272j23587j63701L5966j38407l1999J08748J57867j48008R1588
25435c4750J12024Q2566N7789p9286m1769J58992K03200p3708l15879K3679J86572
25424B79430l63208j14763K0872J11212J82529Q5746j48968k07968k2786m0564
25414b18468L9004J1984J52160J5564k94384K05948J55353j02475k29758j06444
25404c71516N6757O5315l7137J90983J55093k84606k05078J0232q0273J28519
25394c71711L98572M09m6553n7506J38435P1719K6818k2190N3621P4967l62024
25383i5443j51967K66J35751j79318K6808R1580q3412l08251J13889K23080R8363
25372a28654Q2064r609l31786l09840Q122J79712K45983J24348m565j29703p8800
25361c52728N7912O1946j5606J88775j40254p6638q8940J33264O0912J8124j8670
25350a71903J93718p3245j65945j42343K68811K39710L2816n5472k07795p8224
25340a59872J61278l13601j56748J30929J87034j01412k021J50318O6085j35434
25330a73444j16468J45347K33007J36000J04103J84266L7155j31305j43078j92913
25320H2670J33928p9404r2974J07627J10565m95854k22152K61279K40419o2356
25310a6252R649J17931j71428m0837J5065l16185p4012J79529J13580j468R0769
25299i3659p6973j11109J91103j3081L5084K40135L05757r0461l2944l3358k00487
25288A20007M6610P4738J82025m5988o7453j9323K8436k13007k23298K12925j41922
25277d6250m40918j8950N6065O3710j06966j11270L41873J95257J74914J06178
25267B13643m9502j68383J67161j0202j14498J30488K985k65470j19816j71629
25257c85223J31554J12301p0188j98961J93302O0465P7069L1474k15347j40262
25247d03816P7461N988R0777J44760n7498K62783j28837k70960J79017n3964J09810
25236d4479j33928J77665J51525p6757j23443M1140O0733j68016j20900j09121
25226c45581J6488R3034M47158O8009k49464L2741J27034J67681j89664j17672
25216D9764j09953O996K6535J56992M45598L7579l02429j82572L45K1344J27359
25205B77558j28508p5291J73307j56998N5837J45811n2483M7786j35688j78383
25195b7052j27934P2850n2941K18904L23061r0934j21957j57082K68445k2719
25185B82641n473J14475k74278j71090j93382K8816L45445o2822l23309J0470
25175b48507J77160k0200j8514K48372R8703j27279j72626j24068m3035J96071
25165c3923J54386o15N6995j81846k09894J9362J90560J67018n9330l01489r7472
25154b96248R5393J59711J69551J48796j80701j04094j14163j1737j05134L7491
25144b01135K41940J73458j52296n1186j96209j754k20249R4392P1531p5094o5078
25133c81680o840J16436J59281l0976J64662R005k58447o0287K0652Q9580l2818
25122b11432J5689r9060j04030J41786j19495J17668K74934K20506M0052R4986
25112C71604n8362m2732K48327o9018j57032j971J05193q2166j72923j83077j96742
25101b38899P4529K0851o3515j55263p7617K98402R4049j46133j4469n3891J02728
25090a59228R4421Q9003j39982k65991K0593J3874J62214K8161j59493K09301
25080a07127Q2262j9310J44621J97185M1990O9154j44304j48427j84050N6165
25070a1841M9961L39667L4455k55793N865j22352K553q5862K35054L65618N7216
25059F14541j35874l34403K1069Q3694j65710o9541J16865N6488J13299K3596
25049C24024j62751o6446j97838o0867Q0121k8025J72455J30500j86785K8139
25039C2527J44153j7684J48918n9031k05499J54547M4132K1919k16128M4852J58325
25028B51031j15630j02998M4065J05781j81880k45279j4387J80606L53149j9164
25018B55294k89857j69760r1376L05470K04624Q3996r7923r8832J96467o5877
25008B32226P2466K06138R929p5345k04269L7431J63656J15447j6531k41782J49216
24997D48582j61130k09711P3430K19950M6527j07768n187k76587j08072j42221
24987b22187J07210j8572l6739J64891K90850K8706j71342k01430k08428J49105
24977a17936M515P2484J53379p0862o2950m5408J34990j6391j28202J5807k54183
24966c14757K3557m3020L199J87532j22496K03790K36504J2722k01546m3330O9239
24955A1394O5996k08400j02485J93983M6287Q9867J44800Q2054J12876l639j57670
24944B75063l63163k09299p0519J46566j3978K4800J1299Q7846K26382k39412
24934a24415k92535k37733L02862L12581O1140k4651j50999J92720k1407j8878
24924a315J45252p2537K3613k5022J48949M8036j34900j99591J5170K2796k3710
24913e3259j1885j071J1415J33455R0794p4669O8119K91912n1319j40922p2568
24902A90002l9659j20359M08r1093J08222K27106K71221q0244k30909j82182m1176
24891A1337J27796M6539j3992k4627P1301j02108k9034j32124j61881j51778J15013
24880b43558J67756j01753j4587j14699Q0068K8953J4801l926K06365J58598L3888
24869B11906J09440l7154n6412j38115J18493N5154j83480j81746j20717J58071
24859f4560K88187K5452l7401j47987k80929J61172M6114j04937j7460j05730
24849b38079Q8183K01609J04613p55P1967j0273j36113Q9125K28404l55068k28253
24838a84640K85455P1565j27574k53463j83446K39959J99630l4381R9293j55406
24828d3008j68334K43114j0605k66508j43758J33539K06613j7412j07152m7927
24818b21438J17338N3256l8651m0761j48334Q2607K19452J41343j61468k09093
24808b05749j80295j66734J09422j31434J6903J68373m3233R5188L29807j35470
24798a43222j97752j4476J87627J50792j1994m4892q9398J5645K46896j52657
24788e3431k99852j43509J25402L19784Q3837R5106J72898Q4908o7901k33450
24778H3792j79086Q7555j08216K19366J74254j54632k44505M9956N9702J13219
24768A01405l3781J87894J80141j27684j21121o8485j65804j04246K9779n3265
24758a75167j3646N6680J75333K11322M9825l5545l35209j26519j9457L13322
24748A00939J23462K61060j12304j09179j00347R0776J35987P9606l193j63497
24738C03310j44152r7506J11170Q5632K8058k3484P2432j22631n4958J25845j61909
24727A21807k71011Q6486J85800K18928J66952k87934k15089k6609j5810L36596
24717C00116K04648o1638k74539j65708p3180R2283k17626k49783K2673J40281
24707b82473j6891K68301J07948k31155j84259R2855j66225K74697K46973m372
24697A05399n2288K00370j65950j96428N4330K0780M4456j47356p5746N8390J64581
24686A0538l0591k454L2227j93408J33995p7799q1890J37539J6437p4875k16640
24675c46921L062J18174K1973l9658J90413J8821n509n5169J54509J20944J6066
24664A96705k17073j10828J79221K3885J8042J07294P8629L6257j72401j66199
24654b6468k23957N2769L4357r4368J89820O3962M5094p4359J19354J17679L5896
24643B39779k63243j03863o9422n0404P8333J4912p5505k9364K40122J94481p4647
24632A01179k00804j20344Q03J15584L21547K9305J759L42362j67500k01318j05935
24621A16638j25129J11505j70060l19611P4863L16404K09525R9432n8648K4357
24611B79276k04157J9851M7916K6931K04066k55399K2734L602j63460k02055j85826
24600d06521K07347L52520M7128j24774j04608k09123j38820n0027R5406J04285
24590b27187R410J23396q8522K2987J92696n8749Q263n113o2380o6394j8586J8907
24578a51272J77268R7828k85717l20693Q3006P6067p17M7866L96546J42432j24396
24567A38218l6444l895J13757M806p0284o1997p8331k18444N9261P656m7866N3554
24555a40009K65443L3802J21698k1925j33473J08578K0914l14933k16613J68558
24545a07960P3459j6690N9774L4861p3294k78198p144J17442J3913M9039K00956
24534F6158J62972j20719O1337Q2538R2923p6935L8296o0101j47575j43530j09956
24523a54592J92105J02516K02868n0956k77022N9276l7807j31231N85j88046n1088
24512c33392N8785k37287J5997o9459J87519O133m3246O5452K25461Q0012K59613
24501B15588R188m09146M6888J70381J74744p7505l2938J8669M0767J30967J45775
24490D33378J35124K232j04014m9192K0762j43218k54431p4170L81326K01788
24480E49585o1961n1213j55374j41838O3981O6529j04229r1310j28896J22301
[...]
3065a990531L1338J2113J65915K31157q5762p1435k8546J48568j56028r3072j24329
3054a960612o8543l6393j99032j50801l2107K53660N0645j62587J9585K49591
3044b036594L21675l4775j24025j08831K1820j85656J3636K35154K88162k57389
3034a866823K6477J57573j732k19345n0223o2355M2553K8509J02848n4068j59642
3023b056228J3441n6797m81O0235m8335K6294J7610J42606p5808j39079J76269
3012a940273K76895j34415k90006Q9713j0410j83616J05090k6038K2568J52420
3002a938072m2144J61915M0153j17409j68887l7128n1668j4916K97267L1048K09395
2991a630446n970j49121j76044N8347k2156L887o0227k23797R169q64J04163L23043
2979a770016J73302L3966L7250j70661k25231l2322l8323K25697L71184k44678
2969a639832n36426R2623P1514j57447k1627J01865J01252n0569j24399N915J33007
2958b024124M85662r7162j39286j75494K82333K92770j32047j30763k34458L8313
2948a834256q5549q3252L7548J00468j0203P2925p1899q3624j1687j37024J9465
2937b087088J18748N3234j59020O3735P7282L1628k6730p1807k5454l6267J50045
2926a911694m9628J04998n4633j98080j37086J42395m413L9691L1718K66679L9728
2915a730325p0477r4288j86194k5073J36531J14329o8581K3385J83020J77694
2905a539979j67662K5504N1274j79049k20348k49611J1297M60293L4125q7405
2895a861561J08810k2469K0926p0099M4877O872r4505j75056L15897K35315j7632
2884a508625J65649k52177l03105j38807R7975J97686J01662q4825k31216k8440
2874a984223N8732p7350j51812K6973M6130M2383Q3124p3474p1346K6348L49725
2863a724790M8587k5417K7216K38676m4677l4132j35881k60626k11065P5285J60286
2852a886538J74843j28489Q487J7322j31069p7719J75679K67401J9561n8443j82616
2841a801581j02695N089n4225J01564J04108j3778p801J01716j0071P3749K1731
2830a582194K33131j61754j56804j02521J3173j50916k09923q0867j0143J14745
2820b094073J96231J89055J77860J8835j47641j03239q6567N6765o6275q4571
2810a943620J40628Q9143j97688j36761Q2933Q9467J85855p7099J01218K181q3146
2799a746889p9297j9743k520O0673j55167j66706K19528J35177m6955J73770L0799
2788a597330j05440j37346R3888k2162N7742k46736L525K01610l2615j01843r9620
2777a986327M3994J23587n1239K4529p4923J98709K84574J63033j75900o0071
2767a510034q8963j88086m2553r795j28759N9253J27264J01355L0541R004K19410
2756a421363J92801k18615j45646k50982k3504Q9873J53657j45276k60167q6049
2746b115271q152M396K22694J92136J9866k3419J35853P6793j81436k20722P2528
2735a824734j18685j03815J66834J20385L4601q0560r6819m6270j46314J04935
2725a990442K26080j1251j18599m7525j50823j10578o8884J97661J3683K41588
2715a819090O1923k0429j57950o1059L03948q1894l64387k32R6581J8160L8222
2704a986207K54368J46988M0062r7881p227j55891j66305O8912J85379m3692L99
2693a761095J9118o8897N5395J12678j38076q8016K2446L1563k7940q8700j1214
2682a942738N8680j29498j4303J82046L5393R7831N0762J58477R8071q7656j70258
2671a663193R3185J44637p3035j31438m8141j7436o8244j3565j45102q1132j47283
2660b150747R8003K07723o1366N5763K80027J71349j22791M4021j62354l81191
2650b021563N6165K54279k53871M5603K01494k4671l9143J16683o0160P7717n4943
2639a702410j33002o8511p3595J48332K22678k08018j58061K42144Q91k05671
2629a935223L2936K24970J44671J7021M2900r8385J0497j67826l7707r732j69215
2618a945093J62310J70884j56432J622j20925K48177J0612k20746j2455j37322
2608a999368P9752o0745k8900J66290L3045K4326j46564j00127J06139K91142
2598a635010J48817q4078p6989J29341o6511j51015J26336l7653m0305L18829
2588a368238K2128j17983j93603m4683j13808p7634J00203P9004J8662J2556l576
2577a686972r8491N8594j22281Q4551j2389M1439j09753K17822J2633J5404j7473
2566a616916j14844j91446n5665K49602K76857j93004j88685k45133k44369Q2402
2556b241201l2399k6040L0013J64814l0932J36022J24763j05777J81764L60453
2546a438520K7234N0461K03938j77756r2623J97760N2220l81369j59876N3462
2536a665069P4804j60019j32914J31503j6336r3507N1591K59850O7819q1480N2913
2525a510845k40762J26630l4805k02022j77134P6228j4859k49l3059j06405K41034
2514a876248L31993k31084j05118M5810J09785J19883o1440q9053O465o1455N1649
2503a758813N4603M8737j2177J16789j01266k53387J3986J74251m7811k59819
2493b024907K64873J14456j46789M028J10395J07328O7021j50422j10748J17237
2483a647528n9366j05867l43792q1525K20031K62232j51398J09463j29076J10993
2473a815833q2172q6207L13203j21296K545M6483j73400j53375P0583K2104K22971
2462a754394N2471N1502n3628k01124j34638K2461q6256J03967K50321o588k61384
2451b017290m8492L13325M5063r1114j3968j02542P8531J60614m626j41436p840
2440a829775R4752R8064R2644r5382n2908L35463P9524j72471k47405j36865k53592
2429b087951j87732M2799L09372J75550j20514j42195n686R6530K21858K40111
2419a457858k7973k0736N7884j35084J57749j34969J6434J32332j5495J09666
2409a318050k17316j05336L2561k15789J54824N3448j07038j39486K01788J3270
2399a647124j94187l4197J24227p6473m1088k4188J11214l9212q6781Q0374J26490
2388a700945L6060P4151J31418j03448j26547J54686J18237r7982j87019M6661
2378a654728m9332p1515j47401l2788K0246k4215k5298J9785K99322J94476J43804
2367a327644J74325K6855j91099k53140J33202o1567j86749p0020K712L545q7749
2356a837329q3753j63394J04865L93920K65127L23609J2920j83868k31011k3977
2346a422891Q1617k14312j36570l16154r0883L02069L39471j11830k79126j49401
2336a998010R058N9063K73399l5454n8320J4744J4638J46874K3744j59352Q4779
2325a624837j9245P4705k48765j974k7848j7160l20052J01045L87469J39660M3820
2314a513182j83591j683J68740R5314k28178k18546r0264J75783j3051J53426
2304a655232q3912Q8522Q0056j27113j28821M1275R5831J04342k6638j1335L3167
2293a589858m1149M4521J10035j44440j85780q4374J54212k83048j3955O886K84956
2282a741994n1968q7839Q3534J41824m8621k1950k86471k6284J42915J9738M4649
2271a832467K064R3228L01215j13022j72102p3835k43390n2963J49667K2694J23011
2260a795900R5733m4564J83085j7422j10105J50856K0020r2801j84447J12833
2250a682712Q7922q619J12149R567k52052k97043J24931K94023j40589r4882P7504
2239a769801N8531J11777K06743j5881k7962L3938j65605m1603j44900j61757
2229a916520j04493J30455J33481K66577j19226k82190j45499K5021K80499J74632
2219a557263J11986J6876J81110k18803j07390K64038M3576l08090k84478j81341
2209b039779L8478K44021L96942j7085j61522j61506k12406K9985j30488j12886
2199b126246J46176P8566J76858j27785o3416N8057k4431k8198p3093J18498L9725
2188a825289J55151r7292r0263j44164R6403N5177M9659o4967r0068N6843M8560
2177a850250L27114P4468k55115j10719J52865J1764j37836j23871M4871J05951
2167a760758J23978K04070R0172M8486k07052j76593R3098J99117m465k80070
2157a670017j94532K6231K8597N7538M47001q4266k56352j84374k25530j76626
2147b232330N6895l0510O4820K64869M9231q9157N9919l78848j88555J62096J06362
2136b155208K44230O1346n751p8242m4772j4311O3806K74872Q5222k3090k51067
2125a842965m2898L9144O8794J25445L8328m6437J90432K6676j39304K0321n1937
2114a614401k12528L745j382j35782L20990L02519J9454J1346r1314j18157J40064
2103a375446K12750j81935j02259R2055j30530p1841j79022K4841K46373M2006
2093a423008k55662k11592l3251j66577r27J38308J77402j92435L8222j74302
2083b103822J5361R6695K9203L3308K44723Q0884J30644k04909j83150k35258
2073b096321N4987p2366l5137J96230r587K735K76372k1286K3715J29531j91142
2062a742269j40143J34625J46353L0275q4227j2297M1472J89968l90413N9619
2052a767037J15291n558j32354l5109K86957n86k94255j75830j73246r1287O731
2041b266283M35270P5265r1076k1477j00643J27732O973J88124m3059m5082q8223
2030a822479j6158j5245K53954L84604j97353j73617n0081J59982q2561j96761
2020a755715r1557n2029R2885L5066K99812J56267J58290j14574l51664j59590
2010a782809k05708k39013J0354K31920L54571K51747m6480j67088o57r2239m5939
1999a731341N6798j42247l03738k7623J58628K86281K40050O2443O6713K4944
1989a309092k37753j35036p0158J32317J89010J9802j78067k24275J85715j5019
1979a642556k19385m8797j10707J44335L05037o2179k20033j39894j380O3520
1969a932039p8408K15544K65147M4991j22019o1897k50023J171L5675O4174r992
1958a827676j15420J71799M0076m3618j31607q0727J06675J99876q2320j8276
1948a781218K46684l9301l36308r1340R6867K14362M7762n8851n2080M8803P9674
1937a624946J31652k4558N957O3100J34079j85940m45825R4507K91656j46325
1927a706643N8461j16182j44699k4433j7310Q7899J12288L4129m6318k9945J00831
1916a691922J67454J08851k438j04205k34372M0041j18496M3986R9998q4561N0546
1905a725118q0938j11924M2459j8539R6963n4530j08668P0412Q3631o4247K9981
1894a840518N6908L0457K43869J90789m0919j84519j18942J12086k04265m73202
1884b228256l11831M58082N98839j309l5299M5325k68106j18405O4110j44520
1874a941370L69J79572K54361K15703P9847j31413k57875p2698J67139j72504
1864a678869j03695J07498K33428L6184j45348M5925J9107p9681j06302J20852
1854a550901K10544J2738p4542k71558q8290K1666m5870l8507O2205L1020J07507
1843a623988J19609Q5564k4707k55080k75750J40675J77960j34064J58426J83383
1833a447972k20882r3152k7537k03640N6421J91433P7382k74312k5505K65342
1823a702422L23197p1743P0521J94777q6685q0651j27203j49170p9581r2464O3239
1812a738185J66054j28877k68461R8317J85348K34678J10371r711k51601j42507
1802a744574j36052k51609K47396Q1872n2567K7675P9363Q6761K774q028j30289
1791a797278J1915J08475l092r6343L43301K22202k03971o7934R7587j75004n6364
1780a616506J4840K2853l4314k95040j41911j4865Q5336Q1940P0613j35245Q9483
1769a872816l0237N9515J0552k33836O3311N1278J07906o6354r3757j86491j20173
1758b311102J83573L63031R6237J36693q2683j89499r3367j20770k7450J42483
1748a902854O6412J25269K91224J49821k02955N3428J9167j17709j74289l69895
1738b062381j22909J53719L52157K33311k01182j09382j22051j17803J7537K1215
1728a957769J00444Q149K8109l7270l6267k29537j43987L54305J44358N3484J7602
1717a698379J10252q9255n5583L7740j89736j48240J52898N0790Q3134J36718
1707a609661o579k08117M1404K06048p856Q4846J51048K65304P3332j54312j89011
1696a353554n5818k4027J50775j82702l05026j99560O4688J24402M5777j95866
1686a930911l1220K14980m5929q7230l4692o7980K18142j53853r8780P2441K59428
1675a685604j3852p5438J98226N3811j684M483M8204P1169p5187j61709M660n9392
1663a692313L2915k7476L419M0583J43947k9185k22501n9180R3961J08390n9027
1652a666467M7523r3120j22403P6890K15468M1976l3276l0021L7214K2840j8862
1641a522238J03114j01112p9309L1727K241Q4744Q4650R9769j82130j35974J522
1630a612996n3322j58213l3500J75170m6901o9436n4540k7426N6172L63788K67004
1619a194200j10955k04754j38409M2773k6089R9730K0274O3886o65j78689Q2853
1608a544245j23562p1293L0949N5254p1966J3686J46071k2171M6656J05546r0134
1597a525209k43092j99848J44203K85744K81964N882k32659k47592q5335Q811
1587a807131n8596j2507l8757j22158M8401l7914R2873j11818q9889J06375L20898
1576a710223J98644J04993k25935J36959J70033q2083M9039K8511r5065j29057
1566a554184j03217q2682k7895K34259M4822O7878j77820j61038j29971J52619
1556a737229J94103k14557o8359j04824N5914K7767j14190k9397N410K8938p0708
1545b027132k51053J07524L1761n6495N4930J97785J1859N937K48123M0481J62446
1534a473834r3430p8470l757j84270j32396J53417q8338M5627M26717J99446J71794
1523a057494j2788L5638r8806k8870j46245j89420N4754J78469j53561j81576
1513a599899k54586O833K15920J32860J26208k080P5583J26729j43238O4834N6851
1502a193985J56931k33178l14649M0531j83685j60280L77013J08003J52274j26126
1492a377151k94389M0791K8813j6899K38421r9770P0640K1683k11216j42901o4143
1481a806121K40719N8474R0689j17405r888k42231j48783J25655L38660K65O1221
1470a408745m0582l0301j62336l3496P4136M4290O9232J60652K4069r2736q5406
1459a481223k10890N4685L61608j77508j35684j28015J41378K05258j67879K838
1449a535432L8793M180K9825q4057L6769q783K52202j18488p6253K3100L5995
1438a402149r9726j31275J47954K08565k956M0183j22839o8327q3071K562J67843
1427a343236J58345j78461p6818l4740p8399k2171j21702J135K27897L8146k11859
1416a641863l54803j26367j00158J63351J89151J35042K31326J20175J46233J34312
1406a103601K7169o2370k16486j22958o924K7021k99183k77823J06032R6365R8088
1395a734670R2385Q9077L0215k34785k7377J75986j42923p5367K26797J50262
1385a450400k6045O4820M6762j99604L282N4796L7938L4044o1891N7645O3681
1374a374972L1340j70811k06178J5578L21897k6799P2342m7927p2782K47702q0690
1363a291300L5055k26956r5440M2744j4602M3021K59032J81505j88291l74253
1353a629485q1117k9509M9618j24476L35022J01870q1165p957J78179k2628j19911
1342a431559N5021k9239j46255j42789r1127n0500L457K30063J66497J09526r3932
1331a420837q6242k10921p8584N3644J3184j2124J605K2218j35415J57373q9805
1320a785904j13866K12306K33766j55493n6715m6985j9258Q3215m2467m9707k904
1309a744012O4779N0678N073j13435J8214J19513m3197L2549J72379J45441J6881
1298a275137j67517j23061J09960J34793j98450l3370K04438p774p186l5848j73391
1287a572543j97024r5852j1041K27149K5002m7338j28364r6062o666P8047K89971
1276a534721j17000j31222j84806R7930L2025K25039K1047r4145Q7350j01694
1266a700197n5909o7186P9433M4448k2627n0062j48390k04886p9874J37712J1137
1255b056401K3082j04221J01351j5505Q2511J48855o0999J51155m1385J5870o7304
1244a822991k931L5721K46623K49660Q2398l37397k24815J72406J06428K5722
1234a469176K29427l9881j65150k1008m0874p9535j43734k4358K98865m6268K07684
1223a294008O5553j20687L1885p1584k44692L5280N5345j7398J91482L07706l6916
1212a098034j68800j23723j36381k23649r007Q2857Q2908N5766j4259j38538l5606
1201a726466M2399L9531n6059j14075K11070K87307Q8839p4659j89479o8434j70838
1190a730864o903j51668j00208J67342J67405k03350N4904O7308o6865j03260
1180a906159q5257J98801J49050k6574o0540k96958J97163L36290o8969k22014
1170a785167j76265j59273k71954L6509N27888L52275k51131k81435r408J1502
1160b006459P678M8500J1217K03480L53358k2691m7468J65399j71557l09185J7547
1149a750181R6118m0006J00472N5940j4161l0348r5251O4129K24917m1595J27237
1138a302729q8046M6502j45138j18269p7686j30816m3252K48143N5137j30860
1128a687014K18080K21855r4640j23636j72500j7892j383j07898R1857o8482O9781
1117a671872J3739Q1915j98798N7430J56866m5610j6460J181M05530K33541l356
1106i85894k14818j93311j13770J17605R2456n6642j4596k43873j72754q1316
1096a866913j6653N0623J91333K31720r4263k94247J06698L22729K45259r7208
1086a220922l06214r3939q3502j33144N3954J04215K6277j14234J66440P2813
1076a528256Q3351r6142j72888N5682j06496N8154K92059j43667j41233K6667
1066a672769K12844J35929j93553o3959K13501P5151o1479j58427J09892N1312
1056a351558j42500K6669M7800P6784q5295l17006r8856p7531J03987L16032J94654
1045a306820l11365q0401J14262K787k4718P1976q0107j14003M4075N3141L29630
1034a301543n8925j25470o6487p6056j23679K08198R3434P9320J55711k05925
1024a421422J11147K6032j36830r6578p550j20036k47824n0183K91566J48014
1014a503664k17108M708N9531R9875q5210m5435K07987j49543k16802j57659P3950
1003a929370l0396j8241m511J79796J70241R4329k51934q2087p6135J54532N29171
992a264605K93094l10242k30432p0353Q06j83970n4485M0636k3219n0828J07174
981a746424K22444R8941N4080O903k35086o1921p2243J9294J19689j0816l52965
970a958104N6676K85152K47047o666o4588k72691M0760J43389k75326m8934P6693
959a776592O4848j4709J91224K37415L68592n5536r1861o6622n476L6130k61119
948a373706n3413j89438k40406j25405J35044L30793R4450j53973L7609J38623
938a399822q8870j45044J47936J95151K32121o3763P1435l7567P6077R0027q0554
927a002873k47499k33769j16357k52545q8368M9454K43379R5788L1311M086P8865
916a438528q0665k8587j72878R3619J97066J56024L3000o5899j25579l2951P8300
905a387078n5604k25305M4441J48007K7898m6331j28650l1480J32884N3969j4718
894a481967k6286j78785N5266Q2035J43942K29936q5938l32800o8221L49986J00052
883a212780k54340J39437j1908l24703n2657J64164J64463J22827k1436j22039
873a408972r0576k5830O996m2753R1270k5675n2808l0690p0267Q8312L8012J74364
861a348617L9213j09175r909l1774K83927J08598k51413n2779J14957L2087r8317
850a323202j73032L9389k3540k83039k06707M2620J61219J16501J02296n258j44682
839a697435L28139L5034j28427N0833j0721o3995j04751K49356r3310k14641j88556
828a838474O0836j87810k8728O983K38778K171j46821k9498N6483J13092m8204
817a801192j00844L5789J09590P4367K15763o471j57820K8659m7960M7004P9994
806a523121J64076r3409n5423r9948j16633n1628L47760n7993j20333J06405K84278
795a215969J4596j85444R7461O4949r9605p9246O282J10696O0532j02865J1627
784a316986j39171k98911j91838Q1812M0484J13972q45J00269q7976J9200L6040
773a643950J29600m2681j01816J44443L85623J62963j8572j70375k81249m28350
763a864364p2468K04596o0928m5313J17925m9575m6641j34046p5391O2747K47161
752a716297J34167j05974K6177l1283l5871J31516p6847P3173j90153j39244J12559
741a818077m5371m5709J82371K36116j41034k07593Q8358L22705N3924k41103
731a615413o7349j7773k1692J36451J37477J47998o5546j77520j30954J71231
721a503090K15297L8007J4745j42870k1680J37527K4134k60509m52544J84993
711a765990L09806l6507R2683l616k35891r8300O8824p2584k23786j08797J04028
700a970130J47773k44465j32955O5309Q0729K60593M7914M3206N5912P0005K7003
689a549106Q0548m7539k99832l06428q9037J34888L47115P3564J94905J28771
679a332151m078j80890j38301R3551p0320J08205R4670j33921p7232n0005j5318
668a705790J69366J00897k13120J12360J01854J17857q508j70366O2469K06156
658a226825o7866p5800O8212R939j44782j51321r2714M1527J44008l2178k89115
647a816915m652P5915J43989J75300J0157k61119J38474R7279k16489k08837m3567
636a910465J12726J22616R4999n0251J9573n8033J1600j55766N9576k801k9750
625a785976j32217p1312K56337j9143j26272j42599n3572o2380L2199M69675K04645
614a430615L39055j61791l82162K9120L5598N868J61834K8761k31486L06550L0828
603a268440j18966j51884j59715J01509O8841J06694N6336j05035k5276m7831
593a543767j2614J3152J2017j67854j19744J5170K04064K6700p5285l37098O4404
582a920855J38640k3100J59363Q6075K2336K79880k59913j71800J49605P9431
572a460338r6j78244k67064q2217l4781J05806K12606M60380l7192k76576r0803
561a648519M9686m5337L730Q1757J38170j23275K11527N9395l121j57185j65813
550a598985Q2632J84807l1305j790M6948R6024j01644k81166R0321R8312J37855
539a277991K1962R717M9529J20280m11964m27718j19863J19794j41968J5322J14012
528a928888L00561q316p4735n4276K6280J31720K09754J30158j3535M3290n9124
517a297111q2185o6780K9956j17858j20160J20382j06955J30300L6487M9540n9323
506a483707J10668K50782n5376j46816l5377m0954P8917J05493j75792K7497R23
495a363742M8742K16308q6671k09187P735Q145o0787k23781j66904Q6110R4963
484a649069K79925j09261j07073J43878r7740m00543j57052O8651K28302K10603
474a589379J15082M4328k73310K2825r7435K9508O834K0362L70519J49549M9465
463a151652O3086j07037j56466P3623n2726j41475P9542J04225L1150L205o9390
452a323915n8773j17700J29827J00799j28343l07314l959J18965M1028k9872J27687
441a451570q2918j56718K15531J05033k4739j24640q0938P8533k422m4235J28623
430a440460O0937r1201J5893j74802j56270k22820J06936K61702P312L1919J67927
419a432927N7314j64774p6322K53838J09728L5996Q6687J19775Q0016j27497k46721
408a304887j22212n9936l0212O8969o8600q0543j55784P5022K95453L17220r4407
397a159917q3060J11821n424k8572j79033j23590N2715M7080J30884m8839k05085
386a491020Q7581Q2075k27123r3900J08881L5001J0394P4673R9463J75548J29141
375a009286l9744o9988j18460N7354K00511j16953m24918k44905K161L14841K89907
364a159480k3300r0318j05276n96j55642m4402p1865r6429K57200j9099O9802
353a439405Q2854O4943O5525J35532j17835k07623J07803K6129J0390q4456o3776
342a419919P8024J11473N7066O1570l6089l48193k37861j6634J88697J78237P2929
331a310700j97441j71705K72544J43007J1024J36392J67242L4044l59980j15004
321a390577n202P1446L8576N1247J35658J4777R4402j8954j21292j95941j85355
310a511215O2848J51813K56293j36474j02390K4075r5497j20427J95997K02255
300a072722O0483j9899k0520k42964J1514K90239k5035j71710M0186J09986j7212
289a057654k9777k02836j55995j7325J34590J24053J88414l4594O5307j00684
279a086501J27121k10071p3999n5901L559J87432J22568R4703j6156J3986m4958
268i38217j64838L5523j72059j68929o1499K35860M8520j46011M7507j07315l0048
257a421506J83382J34047J98516n0504O5711N3081k07570m936k4262k2646j32915
246a229602k10669Q6194J52414J5164L2819R0633q6068O5022M1341j89401o8691
235a300844J25031J80990J246n9169M5323j0417R707O0485p5273k21870M0655
224a204136J6955j00501q2864K56650K42683J4423m1069J31099q7915n3424j22427
213a030526k96919R6557L08351j61546j19932j09103P1091J86810Q0629L2960
203i41628o1581l9838Q0257K810o6956J04335j58725j91151O0243P416L80819
192h23999K48388L6547M1055p5067o1141j72398j94785p1881J8253J16261o6952
181a005719K29447N3496k44875N6928p3680n8384K0286o5084J6820L11521N6773
170g02471j12551j40408n6361p8133J71879L55872Q182l00732Q829Q3671j46776
159i08999o5141l1905P9565K7257m4796p7205J14982N9980q4114q9888j4302m670
147a039236L8595m8658K0409J79200J29477n2365r9321m0040k0046J22342N3820
136g55823L5291o0617J26063J91508j4191j51756j87285p4977q4112P5273P6830
125h23796J0803j50291q4017Q9852L0721k49975n5108P1577K70257K31922P759
114f50296j24078j39257j11263J04323M3483j21422L4618J98751J54991q0170
104f90320l9144P3099p0416r7270j588J10505J4026k0399q1170p7904K52016l0902
92f59467j42515P1008J13225M7655r9710l0288K29172M8131l1869M8257n1266
81d57667j25499q5753j03154m158K2519J24802o5257j93037m6214J80810J02306
70f50302l7095n569J29462J1371r8492P9161J62778m8014k4251K3664J6336K24828
58b16123n9745k46798n8950p975Q5420K23746P5710j08903K2813N8503r8319l3773
46c64394P2744o188k4569k73005N996O5747J19586k7280j4198m4941j04768N8773
34e36497J05792k4401n0012P4658J81443J34992O9790j34169k62162j85094p5454
23g01114K11099L2991k23862J15818J86068J13033r0991P4953n607J08910j9514
12a98216k02465l3416j7746j52034o582J22956J65760O4512l7848j57843j25152
1e78074k23022
0h01096
##END NTUPLES=NMR SPECTRUM
##END=
